GDP


 36 38  0  0  0  0  0  0  0  0999 V2000
    3.7639  -29.0678  -28.0313 C   0  0  0  0  0  0  0  0  0  0  0  0
    4.1336  -28.6911  -26.7256 O   0  0  0  0  0  0  0  0  0  0  0  0
    3.2575  -30.4581  -27.7932 C   0  0  0  0  0  0  0  0  0  0  0  0
    3.2199  -31.2433  -28.9386 O   0  0  0  0  0  0  0  0  0  0  0  0
    4.2979  -30.9792  -26.8008 C   0  0  0  0  0  0  0  0  0  0  0  0
    5.1025  -31.8869  -27.5112 O   0  0  0  0  0  0  0  0  0  0  0  0
    5.0621  -29.7341  -26.5056 C   0  0  0  0  0  0  0  0  0  0  0  0
    2.3931  -31.8133  -28.8798 H   0  0  0  0  0  0  0  0  0  0  0  0
    5.5818  -31.3871  -28.2158 H   0  0  0  0  0  0  0  0  0  0  0  0
    5.6197  -29.6824  -25.1812 N   0  0  0  0  0  0  0  0  0  0  0  0
    5.5337  -30.7102  -24.3073 C   0  0  0  0  0  0  0  0  0  0  0  0
    6.1573  -30.3330  -23.1637 N   0  0  0  0  0  0  0  0  0  0  0  0
    6.6191  -29.0865  -23.3392 C   0  0  0  0  0  0  0  0  0  0  0  0
    7.3182  -28.2669  -22.4765 C   0  0  0  0  0  0  0  0  0  0  0  0
    7.6209  -28.6637  -21.3086 O   0  0  0  0  0  0  0  0  0  0  0  0
    7.6645  -27.0418  -22.9152 N   0  0  0  0  0  0  0  0  0  0  0  0
    7.3233  -26.6598  -24.1629 C   0  0  0  0  0  0  0  0  0  0  0  0
    7.7335  -25.3394  -24.5443 N   0  0  0  0  0  0  0  0  0  0  0  0
    6.6417  -27.4498  -25.0134 N   0  0  0  0  0  0  0  0  0  0  0  0
    6.2865  -28.6622  -24.6105 C   0  0  0  0  0  0  0  0  0  0  0  0
    8.2005  -26.4073  -22.2603 H   0  0  0  0  0  0  0  0  0  0  0  0
    8.7281  -25.0509  -24.3853 H   0  0  0  0  0  0  0  0  0  0  0  0
    7.0965  -24.6558  -24.9691 H   0  0  0  0  0  0  0  0  0  0  0  0
    2.7673  -28.1432  -28.6360 C   0  0  0  0  0  0  0  0  0  0  0  0
    2.6796  -27.0082  -27.8468 O   0  0  0  0  0  0  0  0  0  0  0  0
    2.8771  -25.5904  -28.7352 P   0  0  0  0  0  0  0  0  0  0  0  0
    2.4054  -24.4465  -27.8430 O   0  0  0  0  0  0  0  0  0  0  0  0
    1.9331  -25.5599  -30.1193 O   0  0  0  0  0  0  0  0  0  0  0  0
    1.4949  -26.4432  -30.3013 H   0  0  0  0  0  0  0  0  0  0  0  0
    4.4698  -25.2970  -29.1386 O   0  0  0  0  0  0  0  0  0  0  0  0
    5.4028  -25.3904  -27.7217 P   0  0  0  0  0  0  0  0  0  0  0  0
    6.2014  -24.1138  -27.5584 O   0  0  0  0  0  0  0  0  0  0  0  0
    6.4607  -26.6949  -27.7937 O   0  0  0  0  0  0  0  0  0  0  0  0
    4.4461  -25.5461  -26.3393 O   0  0  0  0  0  0  0  0  0  0  0  0
    6.1705  -27.4647  -27.2797 H   0  0  0  0  0  0  0  0  0  0  0  0
    4.6617  -26.3780  -25.8481 H   0  0  0  0  0  0  0  0  0  0  0  0
 31 32  2  0  0  0
 31 33  1  0  0  0
 31 34  1  0  0  0
 31 30  1  0  0  0
 33 35  1  0  0  0
 34 36  1  0  0  0
 26 30  1  0  0  0
 26 27  2  0  0  0
 26 28  1  0  0  0
 26 25  1  0  0  0
 28 29  1  0  0  0
 25 24  1  0  0  0
 24  1  1  0  0  0
  1  2  1  0  0  0
  1  3  1  0  0  0
  2  7  1  0  0  0
  3  4  1  0  0  0
  3  5  1  0  0  0
  4  8  1  0  0  0
  5  6  1  0  0  0
  5  7  1  0  0  0
  6  9  1  0  0  0
  7 10  1  0  0  0
 10 11  1  0  0  0
 10 20  1  0  0  0
 11 12  2  0  0  0
 12 13  2  0  0  0
 13 14  1  0  0  0
 13 20  2  0  0  0
 14 15  2  0  0  0
 14 16  1  0  0  0
 16 17  1  0  0  0
 16 21  1  0  0  0
 17 18  1  0  0  0
 17 19  2  0  0  0
 18 22  1  0  0  0
 18 23  1  0  0  0
 19 20  2  0  0  0
M  END
> <minimizedAffinity>
-10.34073

$$$$
GDP


 36 38  0  0  0  0  0  0  0  0999 V2000
    3.6717  -28.9951  -28.8115 C   0  0  0  0  0  0  0  0  0  0  0  0
    4.8319  -28.3935  -28.2870 O   0  0  0  0  0  0  0  0  0  0  0  0
    3.4095  -28.1192  -29.9990 C   0  0  0  0  0  0  0  0  0  0  0  0
    2.1048  -28.1925  -30.4707 O   0  0  0  0  0  0  0  0  0  0  0  0
    3.7073  -26.7388  -29.4119 C   0  0  0  0  0  0  0  0  0  0  0  0
    2.4647  -26.1030  -29.2457 O   0  0  0  0  0  0  0  0  0  0  0  0
    4.2793  -27.1079  -28.0860 C   0  0  0  0  0  0  0  0  0  0  0  0
    2.1495  -28.1410  -31.4742 H   0  0  0  0  0  0  0  0  0  0  0  0
    1.9467  -26.6105  -28.5748 H   0  0  0  0  0  0  0  0  0  0  0  0
    5.2555  -26.1793  -27.5837 N   0  0  0  0  0  0  0  0  0  0  0  0
    5.5528  -25.0173  -28.2072 C   0  0  0  0  0  0  0  0  0  0  0  0
    6.5044  -24.3874  -27.4745 N   0  0  0  0  0  0  0  0  0  0  0  0
    6.7844  -25.1589  -26.4142 C   0  0  0  0  0  0  0  0  0  0  0  0
    7.6770  -24.9605  -25.3805 C   0  0  0  0  0  0  0  0  0  0  0  0
    8.3934  -23.9127  -25.3353 O   0  0  0  0  0  0  0  0  0  0  0  0
    7.7594  -25.9106  -24.4299 N   0  0  0  0  0  0  0  0  0  0  0  0
    6.9804  -27.0083  -24.5158 C   0  0  0  0  0  0  0  0  0  0  0  0
    7.1354  -27.9664  -23.4598 N   0  0  0  0  0  0  0  0  0  0  0  0
    6.1064  -27.2132  -25.5187 N   0  0  0  0  0  0  0  0  0  0  0  0
    6.0021  -26.2954  -26.4701 C   0  0  0  0  0  0  0  0  0  0  0  0
    8.4410  -25.7664  -23.6341 H   0  0  0  0  0  0  0  0  0  0  0  0
    7.1086  -27.6357  -22.4660 H   0  0  0  0  0  0  0  0  0  0  0  0
    7.2727  -28.9694  -23.6292 H   0  0  0  0  0  0  0  0  0  0  0  0
    3.8670  -30.4338  -29.1370 C   0  0  0  0  0  0  0  0  0  0  0  0
    4.9121  -30.9236  -28.3712 O   0  0  0  0  0  0  0  0  0  0  0  0
    4.4239  -32.1541  -27.3290 P   0  0  0  0  0  0  0  0  0  0  0  0
    5.6571  -33.0090  -27.0544 O   0  0  0  0  0  0  0  0  0  0  0  0
    3.2687  -33.1574  -28.0122 O   0  0  0  0  0  0  0  0  0  0  0  0
    2.9249  -32.8036  -28.8852 H   0  0  0  0  0  0  0  0  0  0  0  0
    3.8681  -31.5782  -25.8645 O   0  0  0  0  0  0  0  0  0  0  0  0
    5.1538  -30.7920  -25.0800 P   0  0  0  0  0  0  0  0  0  0  0  0
    5.8812  -31.7787  -24.1904 O   0  0  0  0  0  0  0  0  0  0  0  0
    4.5852  -29.5198  -24.1397 O   0  0  0  0  0  0  0  0  0  0  0  0
    6.2924  -30.1901  -26.1718 O   0  0  0  0  0  0  0  0  0  0  0  0
    4.7095  -28.6467  -24.5436 H   0  0  0  0  0  0  0  0  0  0  0  0
    6.3937  -29.2100  -26.0775 H   0  0  0  0  0  0  0  0  0  0  0  0
 31 32  2  0  0  0
 31 33  1  0  0  0
 31 34  1  0  0  0
 31 30  1  0  0  0
 33 35  1  0  0  0
 34 36  1  0  0  0
 26 30  1  0  0  0
 26 27  2  0  0  0
 26 28  1  0  0  0
 26 25  1  0  0  0
 28 29  1  0  0  0
 25 24  1  0  0  0
 24  1  1  0  0  0
  1  2  1  0  0  0
  1  3  1  0  0  0
  2  7  1  0  0  0
  3  4  1  0  0  0
  3  5  1  0  0  0
  4  8  1  0  0  0
  5  6  1  0  0  0
  5  7  1  0  0  0
  6  9  1  0  0  0
  7 10  1  0  0  0
 10 11  1  0  0  0
 10 20  1  0  0  0
 11 12  2  0  0  0
 12 13  2  0  0  0
 13 14  1  0  0  0
 13 20  2  0  0  0
 14 15  2  0  0  0
 14 16  1  0  0  0
 16 17  1  0  0  0
 16 21  1  0  0  0
 17 18  1  0  0  0
 17 19  2  0  0  0
 18 22  1  0  0  0
 18 23  1  0  0  0
 19 20  2  0  0  0
M  END
> <minimizedAffinity>
-9.69537

$$$$
GDP


 36 38  0  0  0  0  0  0  0  0999 V2000
    7.7960  -24.4947  -25.8428 C   0  0  0  0  0  0  0  0  0  0  0  0
    7.4526  -25.3464  -24.7751 O   0  0  0  0  0  0  0  0  0  0  0  0
    6.6149  -24.6815  -26.7463 C   0  0  0  0  0  0  0  0  0  0  0  0
    6.8539  -24.3092  -28.0632 O   0  0  0  0  0  0  0  0  0  0  0  0
    6.3975  -26.1908  -26.6303 C   0  0  0  0  0  0  0  0  0  0  0  0
    6.8343  -26.7480  -27.8446 O   0  0  0  0  0  0  0  0  0  0  0  0
    7.3470  -26.5343  -25.5340 C   0  0  0  0  0  0  0  0  0  0  0  0
    6.0117  -23.8799  -28.4070 H   0  0  0  0  0  0  0  0  0  0  0  0
    7.8060  -26.5887  -27.9243 H   0  0  0  0  0  0  0  0  0  0  0  0
    6.9377  -27.6505  -24.7251 N   0  0  0  0  0  0  0  0  0  0  0  0
    6.1072  -28.6179  -25.1745 C   0  0  0  0  0  0  0  0  0  0  0  0
    5.9293  -29.5093  -24.1681 N   0  0  0  0  0  0  0  0  0  0  0  0
    6.6449  -29.0888  -23.1151 C   0  0  0  0  0  0  0  0  0  0  0  0
    6.7930  -29.6449  -21.8607 C   0  0  0  0  0  0  0  0  0  0  0  0
    6.1986  -30.7255  -21.5569 O   0  0  0  0  0  0  0  0  0  0  0  0
    7.5841  -29.0051  -20.9787 N   0  0  0  0  0  0  0  0  0  0  0  0
    8.1970  -27.8599  -21.3420 C   0  0  0  0  0  0  0  0  0  0  0  0
    9.0195  -27.2481  -20.3389 N   0  0  0  0  0  0  0  0  0  0  0  0
    8.0605  -27.3077  -22.5620 N   0  0  0  0  0  0  0  0  0  0  0  0
    7.2879  -27.9144  -23.4528 C   0  0  0  0  0  0  0  0  0  0  0  0
    7.7030  -29.4246  -20.0150 H   0  0  0  0  0  0  0  0  0  0  0  0
    9.7220  -27.8360  -19.8303 H   0  0  0  0  0  0  0  0  0  0  0  0
    8.9548  -26.2542  -20.0911 H   0  0  0  0  0  0  0  0  0  0  0  0
    8.0239  -23.0903  -25.4076 C   0  0  0  0  0  0  0  0  0  0  0  0
    9.1280  -23.0589  -24.5716 O   0  0  0  0  0  0  0  0  0  0  0  0
    9.1195  -21.7230  -23.5450 P   0  0  0  0  0  0  0  0  0  0  0  0
    7.6615  -21.3038  -23.3856 O   0  0  0  0  0  0  0  0  0  0  0  0
    9.9439  -20.4123  -24.1855 O   0  0  0  0  0  0  0  0  0  0  0  0
   10.4472  -20.6493  -25.0197 H   0  0  0  0  0  0  0  0  0  0  0  0
    9.7174  -22.0712  -22.0262 O   0  0  0  0  0  0  0  0  0  0  0  0
    8.9244  -23.4581  -21.4479 P   0  0  0  0  0  0  0  0  0  0  0  0
    9.3656  -23.7354  -20.0258 O   0  0  0  0  0  0  0  0  0  0  0  0
    9.2874  -24.7910  -22.4057 O   0  0  0  0  0  0  0  0  0  0  0  0
    7.2479  -23.2619  -21.4078 O   0  0  0  0  0  0  0  0  0  0  0  0
    8.5836  -25.0302  -23.0290 H   0  0  0  0  0  0  0  0  0  0  0  0
    6.7958  -23.9404  -21.9692 H   0  0  0  0  0  0  0  0  0  0  0  0
 31 32  2  0  0  0
 31 33  1  0  0  0
 31 34  1  0  0  0
 31 30  1  0  0  0
 33 35  1  0  0  0
 34 36  1  0  0  0
 26 30  1  0  0  0
 26 27  2  0  0  0
 26 28  1  0  0  0
 26 25  1  0  0  0
 28 29  1  0  0  0
 25 24  1  0  0  0
 24  1  1  0  0  0
  1  2  1  0  0  0
  1  3  1  0  0  0
  2  7  1  0  0  0
  3  4  1  0  0  0
  3  5  1  0  0  0
  4  8  1  0  0  0
  5  6  1  0  0  0
  5  7  1  0  0  0
  6  9  1  0  0  0
  7 10  1  0  0  0
 10 11  1  0  0  0
 10 20  1  0  0  0
 11 12  2  0  0  0
 12 13  2  0  0  0
 13 14  1  0  0  0
 13 20  2  0  0  0
 14 15  2  0  0  0
 14 16  1  0  0  0
 16 17  1  0  0  0
 16 21  1  0  0  0
 17 18  1  0  0  0
 17 19  2  0  0  0
 18 22  1  0  0  0
 18 23  1  0  0  0
 19 20  2  0  0  0
M  END
> <minimizedAffinity>
-9.59635

$$$$
GDP


 36 38  0  0  0  0  0  0  0  0999 V2000
    7.9270  -23.1421  -24.8661 C   0  0  0  0  0  0  0  0  0  0  0  0
    7.9330  -23.8258  -23.6350 O   0  0  0  0  0  0  0  0  0  0  0  0
    9.2235  -22.3950  -24.7825 C   0  0  0  0  0  0  0  0  0  0  0  0
    9.3003  -21.3098  -25.6465 O   0  0  0  0  0  0  0  0  0  0  0  0
    9.2007  -21.9380  -23.3233 C   0  0  0  0  0  0  0  0  0  0  0  0
    8.9354  -20.5578  -23.3449 O   0  0  0  0  0  0  0  0  0  0  0  0
    8.0171  -22.6827  -22.8075 C   0  0  0  0  0  0  0  0  0  0  0  0
   10.2450  -21.2710  -25.9898 H   0  0  0  0  0  0  0  0  0  0  0  0
    8.0299  -20.4243  -23.7168 H   0  0  0  0  0  0  0  0  0  0  0  0
    8.1005  -23.0354  -21.4160 N   0  0  0  0  0  0  0  0  0  0  0  0
    9.0549  -23.8555  -20.9221 C   0  0  0  0  0  0  0  0  0  0  0  0
    8.8452  -23.9762  -19.5877 N   0  0  0  0  0  0  0  0  0  0  0  0
    7.7727  -23.2363  -19.2716 C   0  0  0  0  0  0  0  0  0  0  0  0
    7.1615  -23.0314  -18.0513 C   0  0  0  0  0  0  0  0  0  0  0  0
    7.6097  -23.5871  -17.0008 O   0  0  0  0  0  0  0  0  0  0  0  0
    6.0818  -22.2275  -18.0159 N   0  0  0  0  0  0  0  0  0  0  0  0
    5.6384  -21.6570  -19.1549 C   0  0  0  0  0  0  0  0  0  0  0  0
    4.4836  -20.8168  -19.0222 N   0  0  0  0  0  0  0  0  0  0  0  0
    6.2258  -21.8490  -20.3506 N   0  0  0  0  0  0  0  0  0  0  0  0
    7.2913  -22.6355  -20.4179 C   0  0  0  0  0  0  0  0  0  0  0  0
    5.6074  -22.0651  -17.0847 H   0  0  0  0  0  0  0  0  0  0  0  0
    4.4729  -20.0826  -18.2748 H   0  0  0  0  0  0  0  0  0  0  0  0
    3.6589  -20.8987  -19.6277 H   0  0  0  0  0  0  0  0  0  0  0  0
    7.8174  -24.0593  -26.0326 C   0  0  0  0  0  0  0  0  0  0  0  0
    7.0120  -25.1298  -25.6806 O   0  0  0  0  0  0  0  0  0  0  0  0
    5.9218  -25.5417  -26.8974 P   0  0  0  0  0  0  0  0  0  0  0  0
    6.0291  -24.4578  -27.9653 O   0  0  0  0  0  0  0  0  0  0  0  0
    4.3336  -25.5542  -26.3631 O   0  0  0  0  0  0  0  0  0  0  0  0
    4.2657  -25.4577  -25.3673 H   0  0  0  0  0  0  0  0  0  0  0  0
    6.2802  -27.0035  -27.6186 O   0  0  0  0  0  0  0  0  0  0  0  0
    5.5575  -28.2391  -26.7034 P   0  0  0  0  0  0  0  0  0  0  0  0
    4.1087  -28.3924  -27.1176 O   0  0  0  0  0  0  0  0  0  0  0  0
    5.6247  -27.8781  -25.0629 O   0  0  0  0  0  0  0  0  0  0  0  0
    6.2974  -29.7352  -26.9582 O   0  0  0  0  0  0  0  0  0  0  0  0
    6.3186  -28.3572  -24.5834 H   0  0  0  0  0  0  0  0  0  0  0  0
    6.6535  -30.1058  -26.1122 H   0  0  0  0  0  0  0  0  0  0  0  0
 31 32  2  0  0  0
 31 33  1  0  0  0
 31 34  1  0  0  0
 31 30  1  0  0  0
 33 35  1  0  0  0
 34 36  1  0  0  0
 26 30  1  0  0  0
 26 27  2  0  0  0
 26 28  1  0  0  0
 26 25  1  0  0  0
 28 29  1  0  0  0
 25 24  1  0  0  0
 24  1  1  0  0  0
  1  2  1  0  0  0
  1  3  1  0  0  0
  2  7  1  0  0  0
  3  4  1  0  0  0
  3  5  1  0  0  0
  4  8  1  0  0  0
  5  6  1  0  0  0
  5  7  1  0  0  0
  6  9  1  0  0  0
  7 10  1  0  0  0
 10 11  1  0  0  0
 10 20  1  0  0  0
 11 12  2  0  0  0
 12 13  2  0  0  0
 13 14  1  0  0  0
 13 20  2  0  0  0
 14 15  2  0  0  0
 14 16  1  0  0  0
 16 17  1  0  0  0
 16 21  1  0  0  0
 17 18  1  0  0  0
 17 19  2  0  0  0
 18 22  1  0  0  0
 18 23  1  0  0  0
 19 20  2  0  0  0
M  END
> <minimizedAffinity>
-9.48437

$$$$
GDP


 36 38  0  0  0  0  0  0  0  0999 V2000
    8.2976  -23.5497  -23.8190 C   0  0  0  0  0  0  0  0  0  0  0  0
    9.4505  -23.6134  -23.0128 O   0  0  0  0  0  0  0  0  0  0  0  0
    8.8815  -23.0678  -25.1123 C   0  0  0  0  0  0  0  0  0  0  0  0
    7.9475  -22.5021  -25.9712 O   0  0  0  0  0  0  0  0  0  0  0  0
    9.8744  -22.0192  -24.6088 C   0  0  0  0  0  0  0  0  0  0  0  0
    9.3197  -20.7663  -24.9223 O   0  0  0  0  0  0  0  0  0  0  0  0
    9.8192  -22.2544  -23.1381 C   0  0  0  0  0  0  0  0  0  0  0  0
    8.2012  -22.7749  -26.9056 H   0  0  0  0  0  0  0  0  0  0  0  0
    8.4836  -20.6622  -24.4063 H   0  0  0  0  0  0  0  0  0  0  0  0
   11.0471  -21.9680  -22.4468 N   0  0  0  0  0  0  0  0  0  0  0  0
   11.8079  -22.9270  -21.8731 C   0  0  0  0  0  0  0  0  0  0  0  0
   12.8836  -22.3203  -21.3129 N   0  0  0  0  0  0  0  0  0  0  0  0
   12.7791  -21.0035  -21.5432 C   0  0  0  0  0  0  0  0  0  0  0  0
   13.6155  -19.9676  -21.1799 C   0  0  0  0  0  0  0  0  0  0  0  0
   14.6778  -20.1933  -20.5213 O   0  0  0  0  0  0  0  0  0  0  0  0
   13.2667  -18.7197  -21.5464 N   0  0  0  0  0  0  0  0  0  0  0  0
   12.1299  -18.5239  -22.2454 C   0  0  0  0  0  0  0  0  0  0  0  0
   11.8385  -17.1631  -22.5923 N   0  0  0  0  0  0  0  0  0  0  0  0
   11.3062  -19.5257  -22.6055 N   0  0  0  0  0  0  0  0  0  0  0  0
   11.6226  -20.7660  -22.2594 C   0  0  0  0  0  0  0  0  0  0  0  0
   13.9022  -17.9200  -21.2720 H   0  0  0  0  0  0  0  0  0  0  0  0
   12.5878  -16.5805  -23.0361 H   0  0  0  0  0  0  0  0  0  0  0  0
   10.9246  -16.7262  -22.4265 H   0  0  0  0  0  0  0  0  0  0  0  0
    7.5875  -24.8540  -23.9106 C   0  0  0  0  0  0  0  0  0  0  0  0
    7.9752  -25.4887  -25.0793 O   0  0  0  0  0  0  0  0  0  0  0  0
    6.8713  -26.6631  -25.5700 P   0  0  0  0  0  0  0  0  0  0  0  0
    6.7037  -27.6227  -24.3962 O   0  0  0  0  0  0  0  0  0  0  0  0
    7.4237  -27.5640  -26.8704 O   0  0  0  0  0  0  0  0  0  0  0  0
    8.2648  -27.1872  -27.2653 H   0  0  0  0  0  0  0  0  0  0  0  0
    5.3693  -26.0293  -25.9271 O   0  0  0  0  0  0  0  0  0  0  0  0
    5.4548  -25.2868  -27.4530 P   0  0  0  0  0  0  0  0  0  0  0  0
    5.1858  -26.3164  -28.5308 O   0  0  0  0  0  0  0  0  0  0  0  0
    6.9761  -24.6161  -27.7012 O   0  0  0  0  0  0  0  0  0  0  0  0
    4.2934  -24.0752  -27.6368 O   0  0  0  0  0  0  0  0  0  0  0  0
    7.0061  -23.6542  -27.5785 H   0  0  0  0  0  0  0  0  0  0  0  0
    4.7170  -23.2009  -27.8265 H   0  0  0  0  0  0  0  0  0  0  0  0
 31 32  2  0  0  0
 31 33  1  0  0  0
 31 34  1  0  0  0
 31 30  1  0  0  0
 33 35  1  0  0  0
 34 36  1  0  0  0
 26 30  1  0  0  0
 26 27  2  0  0  0
 26 28  1  0  0  0
 26 25  1  0  0  0
 28 29  1  0  0  0
 25 24  1  0  0  0
 24  1  1  0  0  0
  1  2  1  0  0  0
  1  3  1  0  0  0
  2  7  1  0  0  0
  3  4  1  0  0  0
  3  5  1  0  0  0
  4  8  1  0  0  0
  5  6  1  0  0  0
  5  7  1  0  0  0
  6  9  1  0  0  0
  7 10  1  0  0  0
 10 11  1  0  0  0
 10 20  1  0  0  0
 11 12  2  0  0  0
 12 13  2  0  0  0
 13 14  1  0  0  0
 13 20  2  0  0  0
 14 15  2  0  0  0
 14 16  1  0  0  0
 16 17  1  0  0  0
 16 21  1  0  0  0
 17 18  1  0  0  0
 17 19  2  0  0  0
 18 22  1  0  0  0
 18 23  1  0  0  0
 19 20  2  0  0  0
M  END
> <minimizedAffinity>
-9.47429

$$$$
GDP


 36 38  0  0  0  0  0  0  0  0999 V2000
    7.9958  -24.4571  -25.7257 C   0  0  0  0  0  0  0  0  0  0  0  0
    7.7269  -25.2876  -24.6206 O   0  0  0  0  0  0  0  0  0  0  0  0
    6.7257  -24.6041  -26.5074 C   0  0  0  0  0  0  0  0  0  0  0  0
    6.8483  -24.2503  -27.8452 O   0  0  0  0  0  0  0  0  0  0  0  0
    6.4637  -26.1031  -26.3549 C   0  0  0  0  0  0  0  0  0  0  0  0
    6.7579  -26.6850  -27.6001 O   0  0  0  0  0  0  0  0  0  0  0  0
    7.5025  -26.4757  -25.3531 C   0  0  0  0  0  0  0  0  0  0  0  0
    5.9932  -23.7911  -28.1096 H   0  0  0  0  0  0  0  0  0  0  0  0
    7.7225  -26.5639  -27.7761 H   0  0  0  0  0  0  0  0  0  0  0  0
    7.1326  -27.5697  -24.4964 N   0  0  0  0  0  0  0  0  0  0  0  0
    7.3890  -27.5824  -23.1691 C   0  0  0  0  0  0  0  0  0  0  0  0
    6.9130  -28.7491  -22.6680 N   0  0  0  0  0  0  0  0  0  0  0  0
    6.3715  -29.4411  -23.6808 C   0  0  0  0  0  0  0  0  0  0  0  0
    5.7602  -30.6784  -23.6865 C   0  0  0  0  0  0  0  0  0  0  0  0
    5.6425  -31.3477  -22.6136 O   0  0  0  0  0  0  0  0  0  0  0  0
    5.2973  -31.1456  -24.8616 N   0  0  0  0  0  0  0  0  0  0  0  0
    5.4428  -30.4025  -25.9778 C   0  0  0  0  0  0  0  0  0  0  0  0
    4.9200  -30.9791  -27.1825 N   0  0  0  0  0  0  0  0  0  0  0  0
    6.0369  -29.1947  -25.9850 N   0  0  0  0  0  0  0  0  0  0  0  0
    6.5030  -28.7074  -24.8432 C   0  0  0  0  0  0  0  0  0  0  0  0
    4.8275  -32.0931  -24.8748 H   0  0  0  0  0  0  0  0  0  0  0  0
    3.9444  -31.3611  -27.1809 H   0  0  0  0  0  0  0  0  0  0  0  0
    5.4578  -31.0374  -28.0548 H   0  0  0  0  0  0  0  0  0  0  0  0
    8.3183  -23.0596  -25.3296 C   0  0  0  0  0  0  0  0  0  0  0  0
    9.3529  -23.0873  -24.4089 O   0  0  0  0  0  0  0  0  0  0  0  0
    9.3548  -21.7358  -23.4029 P   0  0  0  0  0  0  0  0  0  0  0  0
    7.8945  -21.3577  -23.1764 O   0  0  0  0  0  0  0  0  0  0  0  0
   10.1057  -20.4116  -24.1033 O   0  0  0  0  0  0  0  0  0  0  0  0
   10.5738  -20.6470  -24.9582 H   0  0  0  0  0  0  0  0  0  0  0  0
   10.0381  -22.0414  -21.9112 O   0  0  0  0  0  0  0  0  0  0  0  0
    9.6472  -23.6331  -21.4635 P   0  0  0  0  0  0  0  0  0  0  0  0
    9.6390  -23.7449  -19.9531 O   0  0  0  0  0  0  0  0  0  0  0  0
   10.7696  -24.7172  -22.0887 O   0  0  0  0  0  0  0  0  0  0  0  0
    8.1084  -24.0830  -21.9930 O   0  0  0  0  0  0  0  0  0  0  0  0
   10.4594  -25.1946  -22.8741 H   0  0  0  0  0  0  0  0  0  0  0  0
    8.1525  -24.8734  -22.5873 H   0  0  0  0  0  0  0  0  0  0  0  0
 31 32  2  0  0  0
 31 33  1  0  0  0
 31 34  1  0  0  0
 31 30  1  0  0  0
 33 35  1  0  0  0
 34 36  1  0  0  0
 26 30  1  0  0  0
 26 27  2  0  0  0
 26 28  1  0  0  0
 26 25  1  0  0  0
 28 29  1  0  0  0
 25 24  1  0  0  0
 24  1  1  0  0  0
  1  2  1  0  0  0
  1  3  1  0  0  0
  2  7  1  0  0  0
  3  4  1  0  0  0
  3  5  1  0  0  0
  4  8  1  0  0  0
  5  6  1  0  0  0
  5  7  1  0  0  0
  6  9  1  0  0  0
  7 10  1  0  0  0
 10 11  1  0  0  0
 10 20  1  0  0  0
 11 12  2  0  0  0
 12 13  2  0  0  0
 13 14  1  0  0  0
 13 20  2  0  0  0
 14 15  2  0  0  0
 14 16  1  0  0  0
 16 17  1  0  0  0
 16 21  1  0  0  0
 17 18  1  0  0  0
 17 19  2  0  0  0
 18 22  1  0  0  0
 18 23  1  0  0  0
 19 20  2  0  0  0
M  END
> <minimizedAffinity>
-9.30773

$$$$
GDP


 36 38  0  0  0  0  0  0  0  0999 V2000
    4.7810  -30.5441  -26.3670 C   0  0  0  0  0  0  0  0  0  0  0  0
    5.1353  -29.1818  -26.4092 O   0  0  0  0  0  0  0  0  0  0  0  0
    4.3315  -30.6768  -24.9435 C   0  0  0  0  0  0  0  0  0  0  0  0
    4.3256  -31.9860  -24.4787 O   0  0  0  0  0  0  0  0  0  0  0  0
    5.3925  -29.8413  -24.2258 C   0  0  0  0  0  0  0  0  0  0  0  0
    6.2331  -30.7529  -23.5640 O   0  0  0  0  0  0  0  0  0  0  0  0
    6.1055  -29.2279  -25.3820 C   0  0  0  0  0  0  0  0  0  0  0  0
    3.5227  -32.0842  -23.8807 H   0  0  0  0  0  0  0  0  0  0  0  0
    6.6915  -31.3003  -24.2467 H   0  0  0  0  0  0  0  0  0  0  0  0
    6.6609  -27.9291  -25.1131 N   0  0  0  0  0  0  0  0  0  0  0  0
    7.3148  -27.6328  -23.9676 C   0  0  0  0  0  0  0  0  0  0  0  0
    7.7043  -26.3358  -24.0385 N   0  0  0  0  0  0  0  0  0  0  0  0
    7.2913  -25.8462  -25.2164 C   0  0  0  0  0  0  0  0  0  0  0  0
    7.4404  -24.5854  -25.7575 C   0  0  0  0  0  0  0  0  0  0  0  0
    8.0500  -23.6736  -25.1170 O   0  0  0  0  0  0  0  0  0  0  0  0
    6.9202  -24.3597  -26.9788 N   0  0  0  0  0  0  0  0  0  0  0  0
    6.2803  -25.3560  -27.6248 C   0  0  0  0  0  0  0  0  0  0  0  0
    5.7589  -25.0250  -28.9193 N   0  0  0  0  0  0  0  0  0  0  0  0
    6.1285  -26.5894  -27.1079 N   0  0  0  0  0  0  0  0  0  0  0  0
    6.6300  -26.8427  -25.9067 C   0  0  0  0  0  0  0  0  0  0  0  0
    7.0300  -23.3961  -27.4008 H   0  0  0  0  0  0  0  0  0  0  0  0
    6.3840  -24.5483  -29.6119 H   0  0  0  0  0  0  0  0  0  0  0  0
    4.7953  -25.2333  -29.2050 H   0  0  0  0  0  0  0  0  0  0  0  0
    3.7474  -30.9009  -27.3762 C   0  0  0  0  0  0  0  0  0  0  0  0
    4.3776  -31.1691  -28.5803 O   0  0  0  0  0  0  0  0  0  0  0  0
    4.3584  -29.8471  -29.6245 P   0  0  0  0  0  0  0  0  0  0  0  0
    4.8480  -30.3523  -30.9780 O   0  0  0  0  0  0  0  0  0  0  0  0
    5.4046  -28.6298  -29.1431 O   0  0  0  0  0  0  0  0  0  0  0  0
    5.7856  -28.7937  -28.2302 H   0  0  0  0  0  0  0  0  0  0  0  0
    2.8285  -29.2161  -29.8404 O   0  0  0  0  0  0  0  0  0  0  0  0
    2.8470  -27.5933  -29.3374 P   0  0  0  0  0  0  0  0  0  0  0  0
    1.4535  -27.0121  -29.4568 O   0  0  0  0  0  0  0  0  0  0  0  0
    3.9018  -26.6910  -30.2855 O   0  0  0  0  0  0  0  0  0  0  0  0
    3.3037  -27.4341  -27.7197 O   0  0  0  0  0  0  0  0  0  0  0  0
    4.7535  -26.5066  -29.8592 H   0  0  0  0  0  0  0  0  0  0  0  0
    4.1123  -26.8700  -27.6312 H   0  0  0  0  0  0  0  0  0  0  0  0
 31 32  2  0  0  0
 31 33  1  0  0  0
 31 34  1  0  0  0
 31 30  1  0  0  0
 33 35  1  0  0  0
 34 36  1  0  0  0
 26 30  1  0  0  0
 26 27  2  0  0  0
 26 28  1  0  0  0
 26 25  1  0  0  0
 28 29  1  0  0  0
 25 24  1  0  0  0
 24  1  1  0  0  0
  1  2  1  0  0  0
  1  3  1  0  0  0
  2  7  1  0  0  0
  3  4  1  0  0  0
  3  5  1  0  0  0
  4  8  1  0  0  0
  5  6  1  0  0  0
  5  7  1  0  0  0
  6  9  1  0  0  0
  7 10  1  0  0  0
 10 11  1  0  0  0
 10 20  1  0  0  0
 11 12  2  0  0  0
 12 13  2  0  0  0
 13 14  1  0  0  0
 13 20  2  0  0  0
 14 15  2  0  0  0
 14 16  1  0  0  0
 16 17  1  0  0  0
 16 21  1  0  0  0
 17 18  1  0  0  0
 17 19  2  0  0  0
 18 22  1  0  0  0
 18 23  1  0  0  0
 19 20  2  0  0  0
M  END
> <minimizedAffinity>
-9.24242

$$$$
GDP


 36 38  0  0  0  0  0  0  0  0999 V2000
   14.2404  -30.4147  -35.1218 C   0  0  0  0  0  0  0  0  0  0  0  0
   13.6457  -29.1523  -34.9322 O   0  0  0  0  0  0  0  0  0  0  0  0
   14.7158  -30.2949  -36.5380 C   0  0  0  0  0  0  0  0  0  0  0  0
   14.9610  -31.5173  -37.1509 O   0  0  0  0  0  0  0  0  0  0  0  0
   13.5261  -29.5828  -37.1835 C   0  0  0  0  0  0  0  0  0  0  0  0
   12.8682  -30.5447  -37.9695 O   0  0  0  0  0  0  0  0  0  0  0  0
   12.7066  -29.2484  -35.9844 C   0  0  0  0  0  0  0  0  0  0  0  0
   15.7723  -31.3989  -37.7336 H   0  0  0  0  0  0  0  0  0  0  0  0
   12.5117  -31.2423  -37.3677 H   0  0  0  0  0  0  0  0  0  0  0  0
   11.9276  -28.0470  -36.1166 N   0  0  0  0  0  0  0  0  0  0  0  0
   12.2988  -26.8672  -35.5710 C   0  0  0  0  0  0  0  0  0  0  0  0
   11.3490  -25.9510  -35.8833 N   0  0  0  0  0  0  0  0  0  0  0  0
   10.4076  -26.5671  -36.6127 C   0  0  0  0  0  0  0  0  0  0  0  0
    9.2452  -26.0710  -37.1671 C   0  0  0  0  0  0  0  0  0  0  0  0
    8.9271  -24.8502  -37.0201 O   0  0  0  0  0  0  0  0  0  0  0  0
    8.4678  -26.9217  -37.8637 N   0  0  0  0  0  0  0  0  0  0  0  0
    8.8427  -28.2106  -37.9958 C   0  0  0  0  0  0  0  0  0  0  0  0
    7.9540  -29.0433  -38.7535 N   0  0  0  0  0  0  0  0  0  0  0  0
    9.9736  -28.7062  -37.4599 N   0  0  0  0  0  0  0  0  0  0  0  0
   10.7603  -27.8931  -36.7683 C   0  0  0  0  0  0  0  0  0  0  0  0
    7.5752  -26.5496  -38.2919 H   0  0  0  0  0  0  0  0  0  0  0  0
    7.6229  -28.7118  -39.6906 H   0  0  0  0  0  0  0  0  0  0  0  0
    7.6225  -29.9562  -38.4216 H   0  0  0  0  0  0  0  0  0  0  0  0
   15.3148  -30.6986  -34.1323 C   0  0  0  0  0  0  0  0  0  0  0  0
   16.4842  -30.9845  -34.8175 O   0  0  0  0  0  0  0  0  0  0  0  0
   17.1634  -32.4524  -34.3458 P   0  0  0  0  0  0  0  0  0  0  0  0
   18.1577  -32.8436  -35.4345 O   0  0  0  0  0  0  0  0  0  0  0  0
   16.0313  -33.6837  -34.2443 O   0  0  0  0  0  0  0  0  0  0  0  0
   15.0917  -33.3460  -34.3363 H   0  0  0  0  0  0  0  0  0  0  0  0
   18.0016  -32.3440  -32.9067 O   0  0  0  0  0  0  0  0  0  0  0  0
   18.4795  -33.9094  -32.4507 P   0  0  0  0  0  0  0  0  0  0  0  0
   17.3304  -34.6035  -31.7494 O   0  0  0  0  0  0  0  0  0  0  0  0
   19.8000  -33.8470  -31.4123 O   0  0  0  0  0  0  0  0  0  0  0  0
   18.8844  -34.8642  -33.7831 O   0  0  0  0  0  0  0  0  0  0  0  0
   20.6462  -34.0515  -31.8402 H   0  0  0  0  0  0  0  0  0  0  0  0
   19.8193  -35.1837  -33.7220 H   0  0  0  0  0  0  0  0  0  0  0  0
 31 32  2  0  0  0
 31 33  1  0  0  0
 31 34  1  0  0  0
 31 30  1  0  0  0
 33 35  1  0  0  0
 34 36  1  0  0  0
 26 30  1  0  0  0
 26 27  2  0  0  0
 26 28  1  0  0  0
 26 25  1  0  0  0
 28 29  1  0  0  0
 25 24  1  0  0  0
 24  1  1  0  0  0
  1  2  1  0  0  0
  1  3  1  0  0  0
  2  7  1  0  0  0
  3  4  1  0  0  0
  3  5  1  0  0  0
  4  8  1  0  0  0
  5  6  1  0  0  0
  5  7  1  0  0  0
  6  9  1  0  0  0
  7 10  1  0  0  0
 10 11  1  0  0  0
 10 20  1  0  0  0
 11 12  2  0  0  0
 12 13  2  0  0  0
 13 14  1  0  0  0
 13 20  2  0  0  0
 14 15  2  0  0  0
 14 16  1  0  0  0
 16 17  1  0  0  0
 16 21  1  0  0  0
 17 18  1  0  0  0
 17 19  2  0  0  0
 18 22  1  0  0  0
 18 23  1  0  0  0
 19 20  2  0  0  0
M  END
> <minimizedAffinity>
-9.22807

$$$$
GDP


 36 38  0  0  0  0  0  0  0  0999 V2000
    9.2823  -23.2041  -23.1710 C   0  0  0  0  0  0  0  0  0  0  0  0
    8.3315  -24.0941  -23.7068 O   0  0  0  0  0  0  0  0  0  0  0  0
    8.6892  -21.8848  -23.5632 C   0  0  0  0  0  0  0  0  0  0  0  0
    9.6010  -20.8366  -23.5530 O   0  0  0  0  0  0  0  0  0  0  0  0
    8.2165  -22.1912  -24.9850 C   0  0  0  0  0  0  0  0  0  0  0  0
    9.1057  -21.5289  -25.8490 O   0  0  0  0  0  0  0  0  0  0  0  0
    8.4356  -23.6640  -25.0494 C   0  0  0  0  0  0  0  0  0  0  0  0
    9.1150  -20.0249  -23.2114 H   0  0  0  0  0  0  0  0  0  0  0  0
   10.0012  -21.9305  -25.7359 H   0  0  0  0  0  0  0  0  0  0  0  0
    7.5161  -24.3619  -25.9068 N   0  0  0  0  0  0  0  0  0  0  0  0
    6.9619  -23.7980  -27.0033 C   0  0  0  0  0  0  0  0  0  0  0  0
    6.1515  -24.7214  -27.5773 N   0  0  0  0  0  0  0  0  0  0  0  0
    6.2113  -25.8378  -26.8372 C   0  0  0  0  0  0  0  0  0  0  0  0
    5.5734  -27.0504  -27.0029 C   0  0  0  0  0  0  0  0  0  0  0  0
    4.7845  -27.2391  -27.9801 O   0  0  0  0  0  0  0  0  0  0  0  0
    5.8165  -28.0176  -26.0980 N   0  0  0  0  0  0  0  0  0  0  0  0
    6.6615  -27.7755  -25.0749 C   0  0  0  0  0  0  0  0  0  0  0  0
    6.8603  -28.8626  -24.1606 N   0  0  0  0  0  0  0  0  0  0  0  0
    7.2894  -26.5975  -24.9026 N   0  0  0  0  0  0  0  0  0  0  0  0
    7.0705  -25.6252  -25.7773 C   0  0  0  0  0  0  0  0  0  0  0  0
    5.3317  -28.9499  -26.2176 H   0  0  0  0  0  0  0  0  0  0  0  0
    7.0876  -29.8117  -24.5418 H   0  0  0  0  0  0  0  0  0  0  0  0
    6.7905  -28.7576  -23.1420 H   0  0  0  0  0  0  0  0  0  0  0  0
    9.4758  -23.3826  -21.7065 C   0  0  0  0  0  0  0  0  0  0  0  0
    8.3290  -23.9480  -21.1736 O   0  0  0  0  0  0  0  0  0  0  0  0
    8.6661  -25.0415  -19.9370 P   0  0  0  0  0  0  0  0  0  0  0  0
    8.7782  -24.2270  -18.6521 O   0  0  0  0  0  0  0  0  0  0  0  0
   10.1297  -25.8283  -20.1531 O   0  0  0  0  0  0  0  0  0  0  0  0
   10.5301  -25.6477  -21.0545 H   0  0  0  0  0  0  0  0  0  0  0  0
    7.4531  -26.1673  -19.7212 O   0  0  0  0  0  0  0  0  0  0  0  0
    7.6910  -27.4256  -20.8379 P   0  0  0  0  0  0  0  0  0  0  0  0
    8.6856  -28.4190  -20.2742 O   0  0  0  0  0  0  0  0  0  0  0  0
    8.2800  -26.8234  -22.2926 O   0  0  0  0  0  0  0  0  0  0  0  0
    6.2683  -28.2818  -21.1439 O   0  0  0  0  0  0  0  0  0  0  0  0
    7.6086  -26.7529  -22.9892 H   0  0  0  0  0  0  0  0  0  0  0  0
    6.0317  -28.2487  -22.1046 H   0  0  0  0  0  0  0  0  0  0  0  0
 31 32  2  0  0  0
 31 33  1  0  0  0
 31 34  1  0  0  0
 31 30  1  0  0  0
 33 35  1  0  0  0
 34 36  1  0  0  0
 26 30  1  0  0  0
 26 27  2  0  0  0
 26 28  1  0  0  0
 26 25  1  0  0  0
 28 29  1  0  0  0
 25 24  1  0  0  0
 24  1  1  0  0  0
  1  2  1  0  0  0
  1  3  1  0  0  0
  2  7  1  0  0  0
  3  4  1  0  0  0
  3  5  1  0  0  0
  4  8  1  0  0  0
  5  6  1  0  0  0
  5  7  1  0  0  0
  6  9  1  0  0  0
  7 10  1  0  0  0
 10 11  1  0  0  0
 10 20  1  0  0  0
 11 12  2  0  0  0
 12 13  2  0  0  0
 13 14  1  0  0  0
 13 20  2  0  0  0
 14 15  2  0  0  0
 14 16  1  0  0  0
 16 17  1  0  0  0
 16 21  1  0  0  0
 17 18  1  0  0  0
 17 19  2  0  0  0
 18 22  1  0  0  0
 18 23  1  0  0  0
 19 20  2  0  0  0
M  END
> <minimizedAffinity>
-9.22558

$$$$
GDP


 36 38  0  0  0  0  0  0  0  0999 V2000
    3.6546  -29.3195  -28.3641 C   0  0  0  0  0  0  0  0  0  0  0  0
    4.5309  -28.9020  -27.3614 O   0  0  0  0  0  0  0  0  0  0  0  0
    2.9628  -30.4863  -27.6604 C   0  0  0  0  0  0  0  0  0  0  0  0
    2.2731  -31.2808  -28.5626 O   0  0  0  0  0  0  0  0  0  0  0  0
    4.1741  -31.1854  -27.0778 C   0  0  0  0  0  0  0  0  0  0  0  0
    4.6801  -32.0759  -28.0294 O   0  0  0  0  0  0  0  0  0  0  0  0
    5.1618  -30.0564  -26.9433 C   0  0  0  0  0  0  0  0  0  0  0  0
    1.3878  -30.8473  -28.7032 H   0  0  0  0  0  0  0  0  0  0  0  0
    4.0529  -32.8209  -28.2014 H   0  0  0  0  0  0  0  0  0  0  0  0
    5.5529  -30.0082  -25.5337 N   0  0  0  0  0  0  0  0  0  0  0  0
    5.3332  -30.8878  -24.5662 C   0  0  0  0  0  0  0  0  0  0  0  0
    5.8712  -30.4470  -23.3995 N   0  0  0  0  0  0  0  0  0  0  0  0
    6.4405  -29.2516  -23.6690 C   0  0  0  0  0  0  0  0  0  0  0  0
    7.1373  -28.3106  -22.9222 C   0  0  0  0  0  0  0  0  0  0  0  0
    7.3223  -28.5597  -21.6940 O   0  0  0  0  0  0  0  0  0  0  0  0
    7.6087  -27.1677  -23.4617 N   0  0  0  0  0  0  0  0  0  0  0  0
    7.3920  -26.9389  -24.7701 C   0  0  0  0  0  0  0  0  0  0  0  0
    7.8412  -25.7718  -25.4447 N   0  0  0  0  0  0  0  0  0  0  0  0
    6.7172  -27.8429  -25.5084 N   0  0  0  0  0  0  0  0  0  0  0  0
    6.2399  -28.9879  -24.9876 C   0  0  0  0  0  0  0  0  0  0  0  0
    8.1322  -26.4600  -22.9018 H   0  0  0  0  0  0  0  0  0  0  0  0
    8.8454  -25.5198  -25.5717 H   0  0  0  0  0  0  0  0  0  0  0  0
    7.1563  -25.0869  -25.8600 H   0  0  0  0  0  0  0  0  0  0  0  0
    2.6645  -28.2394  -28.7289 C   0  0  0  0  0  0  0  0  0  0  0  0
    2.9093  -27.1871  -27.8678 O   0  0  0  0  0  0  0  0  0  0  0  0
    2.6558  -25.6727  -28.5285 P   0  0  0  0  0  0  0  0  0  0  0  0
    1.9751  -24.7054  -27.5861 O   0  0  0  0  0  0  0  0  0  0  0  0
    1.7224  -25.8547  -29.9508 O   0  0  0  0  0  0  0  0  0  0  0  0
    1.4620  -26.7962  -30.1078 H   0  0  0  0  0  0  0  0  0  0  0  0
    4.1703  -25.0828  -29.0406 O   0  0  0  0  0  0  0  0  0  0  0  0
    5.2515  -25.2644  -27.7550 P   0  0  0  0  0  0  0  0  0  0  0  0
    6.1913  -24.0938  -27.6598 O   0  0  0  0  0  0  0  0  0  0  0  0
    6.1071  -26.7168  -28.0272 O   0  0  0  0  0  0  0  0  0  0  0  0
    4.3366  -25.4730  -26.3462 O   0  0  0  0  0  0  0  0  0  0  0  0
    6.6136  -26.6444  -28.8798 H   0  0  0  0  0  0  0  0  0  0  0  0
    3.3830  -25.1755  -26.4762 H   0  0  0  0  0  0  0  0  0  0  0  0
 31 32  2  0  0  0
 31 33  1  0  0  0
 31 34  1  0  0  0
 31 30  1  0  0  0
 33 35  1  0  0  0
 34 36  1  0  0  0
 26 30  1  0  0  0
 26 27  2  0  0  0
 26 28  1  0  0  0
 26 25  1  0  0  0
 28 29  1  0  0  0
 25 24  1  0  0  0
 24  1  1  0  0  0
  1  2  1  0  0  0
  1  3  1  0  0  0
  2  7  1  0  0  0
  3  4  1  0  0  0
  3  5  1  0  0  0
  4  8  1  0  0  0
  5  6  1  0  0  0
  5  7  1  0  0  0
  6  9  1  0  0  0
  7 10  1  0  0  0
 10 11  1  0  0  0
 10 20  1  0  0  0
 11 12  2  0  0  0
 12 13  2  0  0  0
 13 14  1  0  0  0
 13 20  2  0  0  0
 14 15  2  0  0  0
 14 16  1  0  0  0
 16 17  1  0  0  0
 16 21  1  0  0  0
 17 18  1  0  0  0
 17 19  2  0  0  0
 18 22  1  0  0  0
 18 23  1  0  0  0
 19 20  2  0  0  0
M  END
> <minimizedAffinity>
-10.15376

$$$$
GDP


 36 38  0  0  0  0  0  0  0  0999 V2000
    7.3188  -25.1065  -26.0232 C   0  0  0  0  0  0  0  0  0  0  0  0
    6.6565  -26.3176  -26.2285 O   0  0  0  0  0  0  0  0  0  0  0  0
    6.3561  -24.1426  -26.7155 C   0  0  0  0  0  0  0  0  0  0  0  0
    6.9503  -22.9101  -26.9369 O   0  0  0  0  0  0  0  0  0  0  0  0
    6.1102  -24.9082  -27.9996 C   0  0  0  0  0  0  0  0  0  0  0  0
    7.1001  -24.5641  -28.9249 O   0  0  0  0  0  0  0  0  0  0  0  0
    6.3604  -26.3319  -27.5766 C   0  0  0  0  0  0  0  0  0  0  0  0
    6.8528  -22.3925  -26.0919 H   0  0  0  0  0  0  0  0  0  0  0  0
    7.0216  -23.6201  -29.2087 H   0  0  0  0  0  0  0  0  0  0  0  0
    5.1388  -27.0793  -27.8792 N   0  0  0  0  0  0  0  0  0  0  0  0
    4.0403  -26.6826  -28.5069 C   0  0  0  0  0  0  0  0  0  0  0  0
    3.1435  -27.7006  -28.5729 N   0  0  0  0  0  0  0  0  0  0  0  0
    3.7203  -28.7580  -27.9607 C   0  0  0  0  0  0  0  0  0  0  0  0
    3.3340  -30.0663  -27.6997 C   0  0  0  0  0  0  0  0  0  0  0  0
    2.1866  -30.4273  -28.0974 O   0  0  0  0  0  0  0  0  0  0  0  0
    4.1325  -30.9375  -27.0496 N   0  0  0  0  0  0  0  0  0  0  0  0
    5.3443  -30.5165  -26.6428 C   0  0  0  0  0  0  0  0  0  0  0  0
    6.2680  -31.3448  -25.9503 N   0  0  0  0  0  0  0  0  0  0  0  0
    5.7337  -29.2494  -26.8887 N   0  0  0  0  0  0  0  0  0  0  0  0
    4.9510  -28.3668  -27.5355 C   0  0  0  0  0  0  0  0  0  0  0  0
    3.8435  -31.9205  -26.8529 H   0  0  0  0  0  0  0  0  0  0  0  0
    6.7067  -32.1991  -26.3574 H   0  0  0  0  0  0  0  0  0  0  0  0
    6.5600  -31.1247  -24.9619 H   0  0  0  0  0  0  0  0  0  0  0  0
    7.4518  -24.7819  -24.5546 C   0  0  0  0  0  0  0  0  0  0  0  0
    7.8983  -23.4762  -24.4886 O   0  0  0  0  0  0  0  0  0  0  0  0
    7.8537  -22.8010  -22.9601 P   0  0  0  0  0  0  0  0  0  0  0  0
    8.6310  -23.5855  -21.9269 O   0  0  0  0  0  0  0  0  0  0  0  0
    6.2175  -22.6650  -22.4786 O   0  0  0  0  0  0  0  0  0  0  0  0
    5.5983  -23.0418  -23.1520 H   0  0  0  0  0  0  0  0  0  0  0  0
    8.4314  -21.2034  -23.0943 O   0  0  0  0  0  0  0  0  0  0  0  0
    9.7873  -21.2326  -24.1019 P   0  0  0  0  0  0  0  0  0  0  0  0
   10.6812  -20.0488  -23.8522 O   0  0  0  0  0  0  0  0  0  0  0  0
    9.2113  -21.2374  -25.7093 O   0  0  0  0  0  0  0  0  0  0  0  0
   10.5808  -22.7054  -23.8448 O   0  0  0  0  0  0  0  0  0  0  0  0
    8.6923  -20.4055  -25.8744 H   0  0  0  0  0  0  0  0  0  0  0  0
   10.2878  -23.1390  -22.9841 H   0  0  0  0  0  0  0  0  0  0  0  0
 31 32  2  0  0  0
 31 33  1  0  0  0
 31 34  1  0  0  0
 31 30  1  0  0  0
 33 35  1  0  0  0
 34 36  1  0  0  0
 26 30  1  0  0  0
 26 27  2  0  0  0
 26 28  1  0  0  0
 26 25  1  0  0  0
 28 29  1  0  0  0
 25 24  1  0  0  0
 24  1  1  0  0  0
  1  2  1  0  0  0
  1  3  1  0  0  0
  2  7  1  0  0  0
  3  4  1  0  0  0
  3  5  1  0  0  0
  4  8  1  0  0  0
  5  6  1  0  0  0
  5  7  1  0  0  0
  6  9  1  0  0  0
  7 10  1  0  0  0
 10 11  1  0  0  0
 10 20  1  0  0  0
 11 12  2  0  0  0
 12 13  2  0  0  0
 13 14  1  0  0  0
 13 20  2  0  0  0
 14 15  2  0  0  0
 14 16  1  0  0  0
 16 17  1  0  0  0
 16 21  1  0  0  0
 17 18  1  0  0  0
 17 19  2  0  0  0
 18 22  1  0  0  0
 18 23  1  0  0  0
 19 20  2  0  0  0
M  END
> <minimizedAffinity>
-9.76208

$$$$
GDP


 36 38  0  0  0  0  0  0  0  0999 V2000
    3.3896  -29.9070  -27.5948 C   0  0  0  0  0  0  0  0  0  0  0  0
    3.6071  -28.6797  -26.9671 O   0  0  0  0  0  0  0  0  0  0  0  0
    4.7038  -30.0653  -28.3584 C   0  0  0  0  0  0  0  0  0  0  0  0
    4.6082  -31.0536  -29.3254 O   0  0  0  0  0  0  0  0  0  0  0  0
    4.8191  -28.6775  -28.9553 C   0  0  0  0  0  0  0  0  0  0  0  0
    4.1301  -28.6524  -30.1715 O   0  0  0  0  0  0  0  0  0  0  0  0
    4.0390  -27.8413  -27.9752 C   0  0  0  0  0  0  0  0  0  0  0  0
    4.7781  -31.9193  -28.8638 H   0  0  0  0  0  0  0  0  0  0  0  0
    4.5666  -29.2247  -30.8497 H   0  0  0  0  0  0  0  0  0  0  0  0
    4.9498  -26.8014  -27.4942 N   0  0  0  0  0  0  0  0  0  0  0  0
    5.1715  -25.5856  -27.9743 C   0  0  0  0  0  0  0  0  0  0  0  0
    6.1026  -24.9454  -27.2205 N   0  0  0  0  0  0  0  0  0  0  0  0
    6.4609  -25.8070  -26.2433 C   0  0  0  0  0  0  0  0  0  0  0  0
    7.3481  -25.7598  -25.1759 C   0  0  0  0  0  0  0  0  0  0  0  0
    8.0131  -24.6934  -25.0153 O   0  0  0  0  0  0  0  0  0  0  0  0
    7.5129  -26.7967  -24.3291 N   0  0  0  0  0  0  0  0  0  0  0  0
    6.7885  -27.9124  -24.5326 C   0  0  0  0  0  0  0  0  0  0  0  0
    6.8787  -29.0649  -23.7065 N   0  0  0  0  0  0  0  0  0  0  0  0
    5.9229  -27.9736  -25.5646 N   0  0  0  0  0  0  0  0  0  0  0  0
    5.7454  -26.9497  -26.4190 C   0  0  0  0  0  0  0  0  0  0  0  0
    8.1791  -26.7624  -23.5270 H   0  0  0  0  0  0  0  0  0  0  0  0
    6.6148  -29.0832  -22.6975 H   0  0  0  0  0  0  0  0  0  0  0  0
    7.2280  -29.9823  -24.0901 H   0  0  0  0  0  0  0  0  0  0  0  0
    3.2032  -31.0230  -26.5949 C   0  0  0  0  0  0  0  0  0  0  0  0
    3.9503  -30.6742  -25.4863 O   0  0  0  0  0  0  0  0  0  0  0  0
    5.0931  -31.8063  -25.0321 P   0  0  0  0  0  0  0  0  0  0  0  0
    5.3929  -31.8053  -23.5498 O   0  0  0  0  0  0  0  0  0  0  0  0
    6.5272  -31.5093  -25.9167 O   0  0  0  0  0  0  0  0  0  0  0  0
    6.4491  -30.7111  -26.4961 H   0  0  0  0  0  0  0  0  0  0  0  0
    4.5339  -33.3291  -25.5540 O   0  0  0  0  0  0  0  0  0  0  0  0
    5.8871  -34.2848  -25.8859 P   0  0  0  0  0  0  0  0  0  0  0  0
    6.4617  -33.9700  -27.2400 O   0  0  0  0  0  0  0  0  0  0  0  0
    5.3786  -35.9126  -25.7993 O   0  0  0  0  0  0  0  0  0  0  0  0
    7.0037  -34.0369  -24.6382 O   0  0  0  0  0  0  0  0  0  0  0  0
    4.6799  -36.0752  -26.4878 H   0  0  0  0  0  0  0  0  0  0  0  0
    6.7975  -33.1998  -24.1173 H   0  0  0  0  0  0  0  0  0  0  0  0
 31 32  2  0  0  0
 31 33  1  0  0  0
 31 34  1  0  0  0
 31 30  1  0  0  0
 33 35  1  0  0  0
 34 36  1  0  0  0
 26 30  1  0  0  0
 26 27  2  0  0  0
 26 28  1  0  0  0
 26 25  1  0  0  0
 28 29  1  0  0  0
 25 24  1  0  0  0
 24  1  1  0  0  0
  1  2  1  0  0  0
  1  3  1  0  0  0
  2  7  1  0  0  0
  3  4  1  0  0  0
  3  5  1  0  0  0
  4  8  1  0  0  0
  5  6  1  0  0  0
  5  7  1  0  0  0
  6  9  1  0  0  0
  7 10  1  0  0  0
 10 11  1  0  0  0
 10 20  1  0  0  0
 11 12  2  0  0  0
 12 13  2  0  0  0
 13 14  1  0  0  0
 13 20  2  0  0  0
 14 15  2  0  0  0
 14 16  1  0  0  0
 16 17  1  0  0  0
 16 21  1  0  0  0
 17 18  1  0  0  0
 17 19  2  0  0  0
 18 22  1  0  0  0
 18 23  1  0  0  0
 19 20  2  0  0  0
M  END
> <minimizedAffinity>
-9.39408

$$$$
GDP


 36 38  0  0  0  0  0  0  0  0999 V2000
    6.9745  -26.5044  -26.6355 C   0  0  0  0  0  0  0  0  0  0  0  0
    5.7441  -26.9138  -27.1514 O   0  0  0  0  0  0  0  0  0  0  0  0
    6.7512  -24.9951  -26.5495 C   0  0  0  0  0  0  0  0  0  0  0  0
    7.9478  -24.3185  -26.3722 O   0  0  0  0  0  0  0  0  0  0  0  0
    6.1421  -24.7505  -27.9151 C   0  0  0  0  0  0  0  0  0  0  0  0
    7.1725  -24.5329  -28.8346 O   0  0  0  0  0  0  0  0  0  0  0  0
    5.5244  -26.0865  -28.2343 C   0  0  0  0  0  0  0  0  0  0  0  0
    8.1437  -24.3400  -25.3962 H   0  0  0  0  0  0  0  0  0  0  0  0
    7.6539  -23.6890  -28.6498 H   0  0  0  0  0  0  0  0  0  0  0  0
    4.1023  -25.8421  -28.4798 N   0  0  0  0  0  0  0  0  0  0  0  0
    3.3463  -24.8170  -28.1120 C   0  0  0  0  0  0  0  0  0  0  0  0
    2.0726  -24.9914  -28.5507 N   0  0  0  0  0  0  0  0  0  0  0  0
    2.0543  -26.1697  -29.2115 C   0  0  0  0  0  0  0  0  0  0  0  0
    1.0803  -26.9004  -29.8794 C   0  0  0  0  0  0  0  0  0  0  0  0
   -0.0887  -26.4139  -29.9222 O   0  0  0  0  0  0  0  0  0  0  0  0
    1.3447  -28.0850  -30.4679 N   0  0  0  0  0  0  0  0  0  0  0  0
    2.5987  -28.5688  -30.4008 C   0  0  0  0  0  0  0  0  0  0  0  0
    2.9924  -29.8039  -30.9825 N   0  0  0  0  0  0  0  0  0  0  0  0
    3.5553  -27.8712  -29.7559 N   0  0  0  0  0  0  0  0  0  0  0  0
    3.3101  -26.6885  -29.1633 C   0  0  0  0  0  0  0  0  0  0  0  0
    0.6139  -28.6348  -30.9699 H   0  0  0  0  0  0  0  0  0  0  0  0
    2.9770  -29.9990  -32.0071 H   0  0  0  0  0  0  0  0  0  0  0  0
    3.3286  -30.6036  -30.3841 H   0  0  0  0  0  0  0  0  0  0  0  0
    7.2346  -27.0949  -25.2704 C   0  0  0  0  0  0  0  0  0  0  0  0
    6.0178  -27.5676  -24.8182 O   0  0  0  0  0  0  0  0  0  0  0  0
    6.0995  -29.0104  -23.9779 P   0  0  0  0  0  0  0  0  0  0  0  0
    4.8442  -29.3306  -23.1977 O   0  0  0  0  0  0  0  0  0  0  0  0
    7.4419  -28.9421  -22.9192 O   0  0  0  0  0  0  0  0  0  0  0  0
    7.8992  -28.0654  -22.9534 H   0  0  0  0  0  0  0  0  0  0  0  0
    6.4615  -30.2348  -25.1065 O   0  0  0  0  0  0  0  0  0  0  0  0
    5.0341  -30.6115  -25.9283 P   0  0  0  0  0  0  0  0  0  0  0  0
    5.3174  -31.3424  -27.2121 O   0  0  0  0  0  0  0  0  0  0  0  0
    4.2295  -29.1355  -26.2280 O   0  0  0  0  0  0  0  0  0  0  0  0
    4.0627  -31.5120  -24.8744 O   0  0  0  0  0  0  0  0  0  0  0  0
    4.8020  -28.5605  -26.8027 H   0  0  0  0  0  0  0  0  0  0  0  0
    4.5968  -31.8866  -24.1069 H   0  0  0  0  0  0  0  0  0  0  0  0
 31 32  2  0  0  0
 31 33  1  0  0  0
 31 34  1  0  0  0
 31 30  1  0  0  0
 33 35  1  0  0  0
 34 36  1  0  0  0
 26 30  1  0  0  0
 26 27  2  0  0  0
 26 28  1  0  0  0
 26 25  1  0  0  0
 28 29  1  0  0  0
 25 24  1  0  0  0
 24  1  1  0  0  0
  1  2  1  0  0  0
  1  3  1  0  0  0
  2  7  1  0  0  0
  3  4  1  0  0  0
  3  5  1  0  0  0
  4  8  1  0  0  0
  5  6  1  0  0  0
  5  7  1  0  0  0
  6  9  1  0  0  0
  7 10  1  0  0  0
 10 11  1  0  0  0
 10 20  1  0  0  0
 11 12  2  0  0  0
 12 13  2  0  0  0
 13 14  1  0  0  0
 13 20  2  0  0  0
 14 15  2  0  0  0
 14 16  1  0  0  0
 16 17  1  0  0  0
 16 21  1  0  0  0
 17 18  1  0  0  0
 17 19  2  0  0  0
 18 22  1  0  0  0
 18 23  1  0  0  0
 19 20  2  0  0  0
M  END
> <minimizedAffinity>
-9.31855

$$$$
GDP


 36 38  0  0  0  0  0  0  0  0999 V2000
    2.8781  -28.9195  -28.5701 C   0  0  0  0  0  0  0  0  0  0  0  0
    3.5614  -28.1926  -27.5942 O   0  0  0  0  0  0  0  0  0  0  0  0
    3.5184  -28.3538  -29.8371 C   0  0  0  0  0  0  0  0  0  0  0  0
    2.7787  -28.6790  -30.9631 O   0  0  0  0  0  0  0  0  0  0  0  0
    3.4616  -26.8752  -29.5116 C   0  0  0  0  0  0  0  0  0  0  0  0
    2.2255  -26.3706  -29.9262 O   0  0  0  0  0  0  0  0  0  0  0  0
    3.4678  -26.8782  -28.0055 C   0  0  0  0  0  0  0  0  0  0  0  0
    3.0626  -29.5940  -31.2343 H   0  0  0  0  0  0  0  0  0  0  0  0
    2.1369  -26.3865  -30.9110 H   0  0  0  0  0  0  0  0  0  0  0  0
    4.6171  -26.0726  -27.5900 N   0  0  0  0  0  0  0  0  0  0  0  0
    5.0620  -24.9225  -28.0772 C   0  0  0  0  0  0  0  0  0  0  0  0
    6.1642  -24.5181  -27.3942 N   0  0  0  0  0  0  0  0  0  0  0  0
    6.3983  -25.4603  -26.4545 C   0  0  0  0  0  0  0  0  0  0  0  0
    7.3521  -25.6326  -25.4598 C   0  0  0  0  0  0  0  0  0  0  0  0
    8.2437  -24.7401  -25.3442 O   0  0  0  0  0  0  0  0  0  0  0  0
    7.3497  -26.7007  -24.6362 N   0  0  0  0  0  0  0  0  0  0  0  0
    6.3861  -27.6275  -24.7902 C   0  0  0  0  0  0  0  0  0  0  0  0
    6.2845  -28.7917  -23.9822 N   0  0  0  0  0  0  0  0  0  0  0  0
    5.4531  -27.4744  -25.7514 N   0  0  0  0  0  0  0  0  0  0  0  0
    5.4396  -26.4160  -26.5818 C   0  0  0  0  0  0  0  0  0  0  0  0
    8.0656  -26.8313  -23.8886 H   0  0  0  0  0  0  0  0  0  0  0  0
    6.0995  -28.7768  -22.9557 H   0  0  0  0  0  0  0  0  0  0  0  0
    6.3954  -29.7535  -24.3986 H   0  0  0  0  0  0  0  0  0  0  0  0
    3.1338  -30.4025  -28.4463 C   0  0  0  0  0  0  0  0  0  0  0  0
    2.2806  -30.8584  -27.4600 O   0  0  0  0  0  0  0  0  0  0  0  0
    3.0454  -31.4831  -26.1113 P   0  0  0  0  0  0  0  0  0  0  0  0
    2.1226  -32.2494  -25.1904 O   0  0  0  0  0  0  0  0  0  0  0  0
    3.7771  -30.1918  -25.2601 O   0  0  0  0  0  0  0  0  0  0  0  0
    3.5875  -29.3152  -25.6779 H   0  0  0  0  0  0  0  0  0  0  0  0
    4.3281  -32.4602  -26.6627 O   0  0  0  0  0  0  0  0  0  0  0  0
    5.7400  -31.9280  -25.9024 P   0  0  0  0  0  0  0  0  0  0  0  0
    5.5583  -31.8347  -24.4121 O   0  0  0  0  0  0  0  0  0  0  0  0
    6.1190  -30.4029  -26.5703 O   0  0  0  0  0  0  0  0  0  0  0  0
    6.9831  -32.9924  -26.3350 O   0  0  0  0  0  0  0  0  0  0  0  0
    5.3786  -29.7676  -26.3786 H   0  0  0  0  0  0  0  0  0  0  0  0
    6.6196  -33.8575  -26.7011 H   0  0  0  0  0  0  0  0  0  0  0  0
 31 32  2  0  0  0
 31 33  1  0  0  0
 31 34  1  0  0  0
 31 30  1  0  0  0
 33 35  1  0  0  0
 34 36  1  0  0  0
 26 30  1  0  0  0
 26 27  2  0  0  0
 26 28  1  0  0  0
 26 25  1  0  0  0
 28 29  1  0  0  0
 25 24  1  0  0  0
 24  1  1  0  0  0
  1  2  1  0  0  0
  1  3  1  0  0  0
  2  7  1  0  0  0
  3  4  1  0  0  0
  3  5  1  0  0  0
  4  8  1  0  0  0
  5  6  1  0  0  0
  5  7  1  0  0  0
  6  9  1  0  0  0
  7 10  1  0  0  0
 10 11  1  0  0  0
 10 20  1  0  0  0
 11 12  2  0  0  0
 12 13  2  0  0  0
 13 14  1  0  0  0
 13 20  2  0  0  0
 14 15  2  0  0  0
 14 16  1  0  0  0
 16 17  1  0  0  0
 16 21  1  0  0  0
 17 18  1  0  0  0
 17 19  2  0  0  0
 18 22  1  0  0  0
 18 23  1  0  0  0
 19 20  2  0  0  0
M  END
> <minimizedAffinity>
-9.18632

$$$$
GDP


 36 38  0  0  0  0  0  0  0  0999 V2000
    4.1686  -30.2499  -27.2268 C   0  0  0  0  0  0  0  0  0  0  0  0
    4.8476  -29.0418  -27.0619 O   0  0  0  0  0  0  0  0  0  0  0  0
    4.2524  -30.8116  -25.8081 C   0  0  0  0  0  0  0  0  0  0  0  0
    3.9348  -32.1604  -25.7812 O   0  0  0  0  0  0  0  0  0  0  0  0
    5.7172  -30.5537  -25.5193 C   0  0  0  0  0  0  0  0  0  0  0  0
    6.4648  -31.6413  -25.9804 O   0  0  0  0  0  0  0  0  0  0  0  0
    6.0195  -29.3827  -26.4170 C   0  0  0  0  0  0  0  0  0  0  0  0
    2.9415  -32.2169  -25.7394 H   0  0  0  0  0  0  0  0  0  0  0  0
    6.2751  -32.4608  -25.4605 H   0  0  0  0  0  0  0  0  0  0  0  0
    6.5219  -28.3125  -25.5541 N   0  0  0  0  0  0  0  0  0  0  0  0
    6.8396  -28.3449  -24.2673 C   0  0  0  0  0  0  0  0  0  0  0  0
    7.2673  -27.1223  -23.8582 N   0  0  0  0  0  0  0  0  0  0  0  0
    7.2069  -26.3149  -24.9399 C   0  0  0  0  0  0  0  0  0  0  0  0
    7.5002  -24.9787  -25.1795 C   0  0  0  0  0  0  0  0  0  0  0  0
    7.9293  -24.2909  -24.2060 O   0  0  0  0  0  0  0  0  0  0  0  0
    7.3424  -24.4126  -26.3935 N   0  0  0  0  0  0  0  0  0  0  0  0
    6.8842  -25.1761  -27.4027 C   0  0  0  0  0  0  0  0  0  0  0  0
    6.6790  -24.6883  -28.7213 N   0  0  0  0  0  0  0  0  0  0  0  0
    6.5950  -26.4750  -27.1858 N   0  0  0  0  0  0  0  0  0  0  0  0
    6.7461  -27.0565  -25.9821 C   0  0  0  0  0  0  0  0  0  0  0  0
    7.5624  -23.4090  -26.5748 H   0  0  0  0  0  0  0  0  0  0  0  0
    7.4416  -24.3365  -29.3399 H   0  0  0  0  0  0  0  0  0  0  0  0
    5.7150  -24.6598  -29.1461 H   0  0  0  0  0  0  0  0  0  0  0  0
    2.7333  -30.0342  -27.6430 C   0  0  0  0  0  0  0  0  0  0  0  0
    2.7756  -29.2290  -28.7649 O   0  0  0  0  0  0  0  0  0  0  0  0
    1.5621  -28.0823  -28.8456 P   0  0  0  0  0  0  0  0  0  0  0  0
    0.1705  -28.6729  -28.8873 O   0  0  0  0  0  0  0  0  0  0  0  0
    1.8261  -27.1149  -30.2319 O   0  0  0  0  0  0  0  0  0  0  0  0
    2.6057  -27.4222  -30.7578 H   0  0  0  0  0  0  0  0  0  0  0  0
    1.7580  -27.0417  -27.5104 O   0  0  0  0  0  0  0  0  0  0  0  0
    2.9854  -25.9452  -27.8921 P   0  0  0  0  0  0  0  0  0  0  0  0
    2.4497  -24.7686  -28.6611 O   0  0  0  0  0  0  0  0  0  0  0  0
    4.1465  -26.7987  -28.8081 O   0  0  0  0  0  0  0  0  0  0  0  0
    3.7253  -25.4843  -26.4411 O   0  0  0  0  0  0  0  0  0  0  0  0
    3.7249  -27.1303  -29.6453 H   0  0  0  0  0  0  0  0  0  0  0  0
    3.1482  -25.7029  -25.6450 H   0  0  0  0  0  0  0  0  0  0  0  0
 31 32  2  0  0  0
 31 33  1  0  0  0
 31 34  1  0  0  0
 31 30  1  0  0  0
 33 35  1  0  0  0
 34 36  1  0  0  0
 26 30  1  0  0  0
 26 27  2  0  0  0
 26 28  1  0  0  0
 26 25  1  0  0  0
 28 29  1  0  0  0
 25 24  1  0  0  0
 24  1  1  0  0  0
  1  2  1  0  0  0
  1  3  1  0  0  0
  2  7  1  0  0  0
  3  4  1  0  0  0
  3  5  1  0  0  0
  4  8  1  0  0  0
  5  6  1  0  0  0
  5  7  1  0  0  0
  6  9  1  0  0  0
  7 10  1  0  0  0
 10 11  1  0  0  0
 10 20  1  0  0  0
 11 12  2  0  0  0
 12 13  2  0  0  0
 13 14  1  0  0  0
 13 20  2  0  0  0
 14 15  2  0  0  0
 14 16  1  0  0  0
 16 17  1  0  0  0
 16 21  1  0  0  0
 17 18  1  0  0  0
 17 19  2  0  0  0
 18 22  1  0  0  0
 18 23  1  0  0  0
 19 20  2  0  0  0
M  END
> <minimizedAffinity>
-9.13263

$$$$
GDP


 36 38  0  0  0  0  0  0  0  0999 V2000
   14.4529  -30.0887  -34.2083 C   0  0  0  0  0  0  0  0  0  0  0  0
   14.2434  -28.7605  -33.8343 O   0  0  0  0  0  0  0  0  0  0  0  0
   14.7030  -29.9194  -35.7063 C   0  0  0  0  0  0  0  0  0  0  0  0
   14.6143  -31.1320  -36.3716 O   0  0  0  0  0  0  0  0  0  0  0  0
   13.5622  -28.9833  -36.0497 C   0  0  0  0  0  0  0  0  0  0  0  0
   12.4264  -29.7456  -36.3383 O   0  0  0  0  0  0  0  0  0  0  0  0
   13.3169  -28.2829  -34.7391 C   0  0  0  0  0  0  0  0  0  0  0  0
   15.5025  -31.5722  -36.2783 H   0  0  0  0  0  0  0  0  0  0  0  0
   12.5415  -30.2718  -37.1677 H   0  0  0  0  0  0  0  0  0  0  0  0
   13.4648  -26.8496  -34.9965 N   0  0  0  0  0  0  0  0  0  0  0  0
   14.5673  -26.1220  -35.1107 C   0  0  0  0  0  0  0  0  0  0  0  0
   14.2502  -24.8233  -35.3510 N   0  0  0  0  0  0  0  0  0  0  0  0
   12.9010  -24.7594  -35.3841 C   0  0  0  0  0  0  0  0  0  0  0  0
   11.9754  -23.7433  -35.5830 C   0  0  0  0  0  0  0  0  0  0  0  0
   12.4237  -22.5761  -35.7873 O   0  0  0  0  0  0  0  0  0  0  0  0
   10.6453  -23.9660  -35.5639 N   0  0  0  0  0  0  0  0  0  0  0  0
   10.2078  -25.2195  -35.3438 C   0  0  0  0  0  0  0  0  0  0  0  0
    8.8319  -25.5715  -35.3019 N   0  0  0  0  0  0  0  0  0  0  0  0
   11.0940  -26.2168  -35.1489 N   0  0  0  0  0  0  0  0  0  0  0  0
   12.4239  -26.0135  -35.1645 C   0  0  0  0  0  0  0  0  0  0  0  0
    9.9490  -23.2035  -35.7132 H   0  0  0  0  0  0  0  0  0  0  0  0
    8.1832  -25.4929  -36.1149 H   0  0  0  0  0  0  0  0  0  0  0  0
    8.3920  -25.9397  -34.4178 H   0  0  0  0  0  0  0  0  0  0  0  0
   15.6581  -30.6820  -33.5187 C   0  0  0  0  0  0  0  0  0  0  0  0
   16.5781  -30.9479  -34.5145 O   0  0  0  0  0  0  0  0  0  0  0  0
   17.3660  -32.4143  -34.3616 P   0  0  0  0  0  0  0  0  0  0  0  0
   18.3224  -32.7107  -35.4949 O   0  0  0  0  0  0  0  0  0  0  0  0
   16.1879  -33.6504  -34.2550 O   0  0  0  0  0  0  0  0  0  0  0  0
   15.2681  -33.2975  -34.3459 H   0  0  0  0  0  0  0  0  0  0  0  0
   18.1658  -32.4058  -32.8569 O   0  0  0  0  0  0  0  0  0  0  0  0
   18.4235  -34.0133  -32.4053 P   0  0  0  0  0  0  0  0  0  0  0  0
   17.1887  -34.6152  -31.7923 O   0  0  0  0  0  0  0  0  0  0  0  0
   19.7217  -34.0155  -31.2961 O   0  0  0  0  0  0  0  0  0  0  0  0
   18.9344  -34.8533  -33.7832 O   0  0  0  0  0  0  0  0  0  0  0  0
   19.4704  -33.4816  -30.4958 H   0  0  0  0  0  0  0  0  0  0  0  0
   18.7219  -34.3456  -34.6268 H   0  0  0  0  0  0  0  0  0  0  0  0
 31 32  2  0  0  0
 31 33  1  0  0  0
 31 34  1  0  0  0
 31 30  1  0  0  0
 33 35  1  0  0  0
 34 36  1  0  0  0
 26 30  1  0  0  0
 26 27  2  0  0  0
 26 28  1  0  0  0
 26 25  1  0  0  0
 28 29  1  0  0  0
 25 24  1  0  0  0
 24  1  1  0  0  0
  1  2  1  0  0  0
  1  3  1  0  0  0
  2  7  1  0  0  0
  3  4  1  0  0  0
  3  5  1  0  0  0
  4  8  1  0  0  0
  5  6  1  0  0  0
  5  7  1  0  0  0
  6  9  1  0  0  0
  7 10  1  0  0  0
 10 11  1  0  0  0
 10 20  1  0  0  0
 11 12  2  0  0  0
 12 13  2  0  0  0
 13 14  1  0  0  0
 13 20  2  0  0  0
 14 15  2  0  0  0
 14 16  1  0  0  0
 16 17  1  0  0  0
 16 21  1  0  0  0
 17 18  1  0  0  0
 17 19  2  0  0  0
 18 22  1  0  0  0
 18 23  1  0  0 