GDP


 36 38  0  0  0  0  0  0  0  0999 V2000
   -5.1257  -24.1437  -25.2984 C   0  0  0  0  0  0  0  0  0  0  0  0
   -4.6404  -23.3910  -26.3915 O   0  0  0  0  0  0  0  0  0  0  0  0
   -6.5615  -23.6609  -25.3053 C   0  0  0  0  0  0  0  0  0  0  0  0
   -7.2642  -24.0716  -24.1887 O   0  0  0  0  0  0  0  0  0  0  0  0
   -6.3154  -22.1667  -25.3270 C   0  0  0  0  0  0  0  0  0  0  0  0
   -6.0813  -21.6648  -24.0423 O   0  0  0  0  0  0  0  0  0  0  0  0
   -5.0191  -22.0888  -26.1054 C   0  0  0  0  0  0  0  0  0  0  0  0
   -8.1927  -24.2880  -24.4886 H   0  0  0  0  0  0  0  0  0  0  0  0
   -6.5349  -22.1808  -23.3349 H   0  0  0  0  0  0  0  0  0  0  0  0
   -5.2284  -21.2713  -27.2771 N   0  0  0  0  0  0  0  0  0  0  0  0
   -5.6409  -19.9969  -27.3325 C   0  0  0  0  0  0  0  0  0  0  0  0
   -5.7128  -19.5832  -28.6258 N   0  0  0  0  0  0  0  0  0  0  0  0
   -5.3440  -20.5975  -29.4139 C   0  0  0  0  0  0  0  0  0  0  0  0
   -5.2014  -20.8332  -30.7639 C   0  0  0  0  0  0  0  0  0  0  0  0
   -5.4671  -19.8989  -31.5609 O   0  0  0  0  0  0  0  0  0  0  0  0
   -4.7845  -22.0417  -31.2382 N   0  0  0  0  0  0  0  0  0  0  0  0
   -4.5046  -23.0315  -30.3635 C   0  0  0  0  0  0  0  0  0  0  0  0
   -4.0645  -24.3216  -30.7701 N   0  0  0  0  0  0  0  0  0  0  0  0
   -4.6400  -22.8121  -29.0502 N   0  0  0  0  0  0  0  0  0  0  0  0
   -5.0454  -21.6409  -28.5634 C   0  0  0  0  0  0  0  0  0  0  0  0
   -4.6751  -22.2246  -32.2624 H   0  0  0  0  0  0  0  0  0  0  0  0
   -4.7674  -24.9748  -31.2166 H   0  0  0  0  0  0  0  0  0  0  0  0
   -3.0665  -24.6141  -30.6286 H   0  0  0  0  0  0  0  0  0  0  0  0
   -4.9959  -25.6093  -25.5208 C   0  0  0  0  0  0  0  0  0  0  0  0
   -5.7631  -25.9186  -26.6443 O   0  0  0  0  0  0  0  0  0  0  0  0
   -4.8966  -26.6171  -27.8875 P   0  0  0  0  0  0  0  0  0  0  0  0
   -3.5526  -25.9620  -28.1103 O   0  0  0  0  0  0  0  0  0  0  0  0
   -5.7085  -26.6768  -29.3471 O   0  0  0  0  0  0  0  0  0  0  0  0
   -6.6246  -26.3338  -29.2657 H   0  0  0  0  0  0  0  0  0  0  0  0
   -4.5390  -28.2129  -27.4019 O   0  0  0  0  0  0  0  0  0  0  0  0
   -3.2717  -28.8113  -28.3328 P   0  0  0  0  0  0  0  0  0  0  0  0
   -3.1515  -30.3193  -28.2145 O   0  0  0  0  0  0  0  0  0  0  0  0
   -3.5431  -28.4068  -29.9492 O   0  0  0  0  0  0  0  0  0  0  0  0
   -1.8463  -28.0835  -27.7957 O   0  0  0  0  0  0  0  0  0  0  0  0
   -4.1920  -29.0327  -30.3720 H   0  0  0  0  0  0  0  0  0  0  0  0
   -1.2248  -27.9687  -28.5355 H   0  0  0  0  0  0  0  0  0  0  0  0
 31 32  2  0  0  0
 31 33  1  0  0  0
 31 34  1  0  0  0
 31 30  1  0  0  0
 33 35  1  0  0  0
 34 36  1  0  0  0
 26 30  1  0  0  0
 26 27  2  0  0  0
 26 28  1  0  0  0
 26 25  1  0  0  0
 28 29  1  0  0  0
 25 24  1  0  0  0
 24  1  1  0  0  0
  1  2  1  0  0  0
  1  3  1  0  0  0
  2  7  1  0  0  0
  3  4  1  0  0  0
  3  5  1  0  0  0
  4  8  1  0  0  0
  5  6  1  0  0  0
  5  7  1  0  0  0
  6  9  1  0  0  0
  7 10  1  0  0  0
 10 11  1  0  0  0
 10 20  1  0  0  0
 11 12  2  0  0  0
 12 13  2  0  0  0
 13 14  1  0  0  0
 13 20  2  0  0  0
 14 15  2  0  0  0
 14 16  1  0  0  0
 16 17  1  0  0  0
 16 21  1  0  0  0
 17 18  1  0  0  0
 17 19  2  0  0  0
 18 22  1  0  0  0
 18 23  1  0  0  0
 19 20  2  0  0  0
M  END
> <minimizedAffinity>
-10.11675

$$$$
GDP


 36 38  0  0  0  0  0  0  0  0999 V2000
   -5.7613  -23.2961  -24.0896 C   0  0  0  0  0  0  0  0  0  0  0  0
   -5.7756  -24.0005  -25.3146 O   0  0  0  0  0  0  0  0  0  0  0  0
   -5.5988  -24.4724  -23.1491 C   0  0  0  0  0  0  0  0  0  0  0  0
   -5.7639  -24.1182  -21.8238 O   0  0  0  0  0  0  0  0  0  0  0  0
   -6.7183  -25.3525  -23.6650 C   0  0  0  0  0  0  0  0  0  0  0  0
   -7.9521  -24.9933  -23.1119 O   0  0  0  0  0  0  0  0  0  0  0  0
   -6.7360  -24.9831  -25.1332 C   0  0  0  0  0  0  0  0  0  0  0  0
   -5.1041  -24.6490  -21.2930 H   0  0  0  0  0  0  0  0  0  0  0  0
   -7.8743  -24.6000  -22.2110 H   0  0  0  0  0  0  0  0  0  0  0  0
   -6.5065  -26.1748  -25.9156 N   0  0  0  0  0  0  0  0  0  0  0  0
   -5.3597  -26.5892  -26.4728 C   0  0  0  0  0  0  0  0  0  0  0  0
   -5.5555  -27.7630  -27.1307 N   0  0  0  0  0  0  0  0  0  0  0  0
   -6.8389  -28.1113  -26.9983 C   0  0  0  0  0  0  0  0  0  0  0  0
   -7.6568  -29.1433  -27.4039 C   0  0  0  0  0  0  0  0  0  0  0  0
   -7.1530  -30.0635  -28.0954 O   0  0  0  0  0  0  0  0  0  0  0  0
   -8.9790  -29.1797  -27.0724 N   0  0  0  0  0  0  0  0  0  0  0  0
   -9.4992  -28.1801  -26.3286 C   0  0  0  0  0  0  0  0  0  0  0  0
  -10.8661  -28.1376  -25.9374 N   0  0  0  0  0  0  0  0  0  0  0  0
   -8.7125  -27.1734  -25.9298 N   0  0  0  0  0  0  0  0  0  0  0  0
   -7.4191  -27.1159  -26.2410 C   0  0  0  0  0  0  0  0  0  0  0  0
   -9.6032  -29.9613  -27.3784 H   0  0  0  0  0  0  0  0  0  0  0  0
  -11.5924  -27.9093  -26.6726 H   0  0  0  0  0  0  0  0  0  0  0  0
  -11.1428  -28.3287  -24.9432 H   0  0  0  0  0  0  0  0  0  0  0  0
   -4.6398  -22.3211  -24.0126 C   0  0  0  0  0  0  0  0  0  0  0  0
   -4.0751  -22.2509  -25.2864 O   0  0  0  0  0  0  0  0  0  0  0  0
   -4.2586  -20.7686  -26.0304 P   0  0  0  0  0  0  0  0  0  0  0  0
   -3.0755  -19.8519  -25.8182 O   0  0  0  0  0  0  0  0  0  0  0  0
   -5.6510  -19.9490  -25.6034 O   0  0  0  0  0  0  0  0  0  0  0  0
   -6.2132  -20.4809  -24.9997 H   0  0  0  0  0  0  0  0  0  0  0  0
   -4.2979  -21.0630  -27.7103 O   0  0  0  0  0  0  0  0  0  0  0  0
   -5.8849  -20.9630  -28.2599 P   0  0  0  0  0  0  0  0  0  0  0  0
   -6.3650  -19.5252  -28.3308 O   0  0  0  0  0  0  0  0  0  0  0  0
   -5.9736  -21.6485  -29.8001 O   0  0  0  0  0  0  0  0  0  0  0  0
   -6.8584  -21.8354  -27.1918 O   0  0  0  0  0  0  0  0  0  0  0  0
   -5.6582  -21.0101  -30.4961 H   0  0  0  0  0  0  0  0  0  0  0  0
   -7.6063  -22.2379  -27.6666 H   0  0  0  0  0  0  0  0  0  0  0  0
 31 32  2  0  0  0
 31 33  1  0  0  0
 31 34  1  0  0  0
 31 30  1  0  0  0
 33 35  1  0  0  0
 34 36  1  0  0  0
 26 30  1  0  0  0
 26 27  2  0  0  0
 26 28  1  0  0  0
 26 25  1  0  0  0
 28 29  1  0  0  0
 25 24  1  0  0  0
 24  1  1  0  0  0
  1  2  1  0  0  0
  1  3  1  0  0  0
  2  7  1  0  0  0
  3  4  1  0  0  0
  3  5  1  0  0  0
  4  8  1  0  0  0
  5  6  1  0  0  0
  5  7  1  0  0  0
  6  9  1  0  0  0
  7 10  1  0  0  0
 10 11  1  0  0  0
 10 20  1  0  0  0
 11 12  2  0  0  0
 12 13  2  0  0  0
 13 14  1  0  0  0
 13 20  2  0  0  0
 14 15  2  0  0  0
 14 16  1  0  0  0
 16 17  1  0  0  0
 16 21  1  0  0  0
 17 18  1  0  0  0
 17 19  2  0  0  0
 18 22  1  0  0  0
 18 23  1  0  0  0
 19 20  2  0  0  0
M  END
> <minimizedAffinity>
-10.04779

$$$$
GDP


 36 38  0  0  0  0  0  0  0  0999 V2000
   -6.5585  -22.2683  -24.9862 C   0  0  0  0  0  0  0  0  0  0  0  0
   -6.4389  -23.2539  -25.9920 O   0  0  0  0  0  0  0  0  0  0  0  0
   -5.2487  -22.5140  -24.2659 C   0  0  0  0  0  0  0  0  0  0  0  0
   -5.1629  -21.8239  -23.0719 O   0  0  0  0  0  0  0  0  0  0  0  0
   -5.3557  -24.0122  -24.0713 C   0  0  0  0  0  0  0  0  0  0  0  0
   -6.1158  -24.3316  -22.9410 O   0  0  0  0  0  0  0  0  0  0  0  0
   -6.1451  -24.4171  -25.2981 C   0  0  0  0  0  0  0  0  0  0  0  0
   -4.2170  -21.5152  -22.9779 H   0  0  0  0  0  0  0  0  0  0  0  0
   -6.0712  -23.6436  -22.2357 H   0  0  0  0  0  0  0  0  0  0  0  0
   -5.3690  -25.3691  -26.0574 N   0  0  0  0  0  0  0  0  0  0  0  0
   -4.0495  -25.3580  -26.2940 C   0  0  0  0  0  0  0  0  0  0  0  0
   -3.7002  -26.4310  -27.0527 N   0  0  0  0  0  0  0  0  0  0  0  0
   -4.8020  -27.1423  -27.3092 C   0  0  0  0  0  0  0  0  0  0  0  0
   -5.1304  -28.2928  -27.9927 C   0  0  0  0  0  0  0  0  0  0  0  0
   -4.2099  -28.9231  -28.5707 O   0  0  0  0  0  0  0  0  0  0  0  0
   -6.4144  -28.7481  -28.0500 N   0  0  0  0  0  0  0  0  0  0  0  0
   -7.3877  -28.0547  -27.4216 C   0  0  0  0  0  0  0  0  0  0  0  0
   -8.7522  -28.4565  -27.4293 N   0  0  0  0  0  0  0  0  0  0  0  0
   -7.0785  -26.9360  -26.7550 N   0  0  0  0  0  0  0  0  0  0  0  0
   -5.8325  -26.4718  -26.6850 C   0  0  0  0  0  0  0  0  0  0  0  0
   -6.6677  -29.6210  -28.5678 H   0  0  0  0  0  0  0  0  0  0  0  0
   -9.3059  -28.3380  -28.3235 H   0  0  0  0  0  0  0  0  0  0  0  0
   -9.1945  -28.8600  -26.5673 H   0  0  0  0  0  0  0  0  0  0  0  0
   -6.6716  -20.8965  -25.5514 C   0  0  0  0  0  0  0  0  0  0  0  0
   -5.3954  -20.5266  -25.9769 O   0  0  0  0  0  0  0  0  0  0  0  0
   -5.3137  -20.0982  -27.5876 P   0  0  0  0  0  0  0  0  0  0  0  0
   -4.5602  -18.8081  -27.8172 O   0  0  0  0  0  0  0  0  0  0  0  0
   -6.7970  -19.9918  -28.3503 O   0  0  0  0  0  0  0  0  0  0  0  0
   -7.5308  -20.2509  -27.7520 H   0  0  0  0  0  0  0  0  0  0  0  0
   -4.3885  -21.2993  -28.3697 O   0  0  0  0  0  0  0  0  0  0  0  0
   -4.8183  -21.3683  -29.9948 P   0  0  0  0  0  0  0  0  0  0  0  0
   -3.7332  -22.0150  -30.8356 O   0  0  0  0  0  0  0  0  0  0  0  0
   -6.2394  -22.2670  -30.1461 O   0  0  0  0  0  0  0  0  0  0  0  0
   -5.0846  -19.7887  -30.5273 O   0  0  0  0  0  0  0  0  0  0  0  0
   -6.0506  -23.2444  -30.1211 H   0  0  0  0  0  0  0  0  0  0  0  0
   -5.7768  -19.7737  -31.2110 H   0  0  0  0  0  0  0  0  0  0  0  0
 31 32  2  0  0  0
 31 33  1  0  0  0
 31 34  1  0  0  0
 31 30  1  0  0  0
 33 35  1  0  0  0
 34 36  1  0  0  0
 26 30  1  0  0  0
 26 27  2  0  0  0
 26 28  1  0  0  0
 26 25  1  0  0  0
 28 29  1  0  0  0
 25 24  1  0  0  0
 24  1  1  0  0  0
  1  2  1  0  0  0
  1  3  1  0  0  0
  2  7  1  0  0  0
  3  4  1  0  0  0
  3  5  1  0  0  0
  4  8  1  0  0  0
  5  6  1  0  0  0
  5  7  1  0  0  0
  6  9  1  0  0  0
  7 10  1  0  0  0
 10 11  1  0  0  0
 10 20  1  0  0  0
 11 12  2  0  0  0
 12 13  2  0  0  0
 13 14  1  0  0  0
 13 20  2  0  0  0
 14 15  2  0  0  0
 14 16  1  0  0  0
 16 17  1  0  0  0
 16 21  1  0  0  0
 17 18  1  0  0  0
 17 19  2  0  0  0
 18 22  1  0  0  0
 18 23  1  0  0  0
 19 20  2  0  0  0
M  END
> <minimizedAffinity>
-10.02465

$$$$
GDP


 36 38  0  0  0  0  0  0  0  0999 V2000
   -6.2281  -26.1084  -25.7221 C   0  0  0  0  0  0  0  0  0  0  0  0
   -5.8390  -24.9517  -26.4347 O   0  0  0  0  0  0  0  0  0  0  0  0
   -7.1807  -25.4626  -24.7371 C   0  0  0  0  0  0  0  0  0  0  0  0
   -7.5799  -26.3307  -23.7389 O   0  0  0  0  0  0  0  0  0  0  0  0
   -6.2862  -24.3524  -24.2260 C   0  0  0  0  0  0  0  0  0  0  0  0
   -5.4348  -24.8030  -23.2115 O   0  0  0  0  0  0  0  0  0  0  0  0
   -5.4448  -24.0595  -25.4501 C   0  0  0  0  0  0  0  0  0  0  0  0
   -8.5412  -26.1359  -23.5467 H   0  0  0  0  0  0  0  0  0  0  0  0
   -5.8145  -25.5472  -22.6876 H   0  0  0  0  0  0  0  0  0  0  0  0
   -5.6205  -22.6734  -25.8146 N   0  0  0  0  0  0  0  0  0  0  0  0
   -5.9335  -21.6425  -25.0168 C   0  0  0  0  0  0  0  0  0  0  0  0
   -6.0070  -20.4942  -25.7414 N   0  0  0  0  0  0  0  0  0  0  0  0
   -5.7393  -20.7839  -27.0183 C   0  0  0  0  0  0  0  0  0  0  0  0
   -5.6512  -20.1067  -28.2150 C   0  0  0  0  0  0  0  0  0  0  0  0
   -5.8640  -18.8684  -28.2135 O   0  0  0  0  0  0  0  0  0  0  0  0
   -5.3426  -20.7482  -29.3780 N   0  0  0  0  0  0  0  0  0  0  0  0
   -5.1178  -22.0794  -29.3562 C   0  0  0  0  0  0  0  0  0  0  0  0
   -4.7906  -22.8279  -30.5207 N   0  0  0  0  0  0  0  0  0  0  0  0
   -5.2010  -22.7458  -28.1985 N   0  0  0  0  0  0  0  0  0  0  0  0
   -5.5008  -22.1415  -27.0505 C   0  0  0  0  0  0  0  0  0  0  0  0
   -5.2747  -20.2377  -30.2885 H   0  0  0  0  0  0  0  0  0  0  0  0
   -5.5539  -23.0128  -31.2302 H   0  0  0  0  0  0  0  0  0  0  0  0
   -3.8151  -23.1858  -30.6683 H   0  0  0  0  0  0  0  0  0  0  0  0
   -6.8818  -27.1176  -26.5985 C   0  0  0  0  0  0  0  0  0  0  0  0
   -6.2862  -27.0100  -27.8555 O   0  0  0  0  0  0  0  0  0  0  0  0
   -4.9990  -28.0459  -28.0886 P   0  0  0  0  0  0  0  0  0  0  0  0
   -5.3648  -29.4976  -27.8789 O   0  0  0  0  0  0  0  0  0  0  0  0
   -3.6538  -27.6961  -27.1605 O   0  0  0  0  0  0  0  0  0  0  0  0
   -3.7830  -26.8810  -26.6291 H   0  0  0  0  0  0  0  0  0  0  0  0
   -4.5655  -27.9294  -29.7344 O   0  0  0  0  0  0  0  0  0  0  0  0
   -3.8187  -26.4479  -30.0139 P   0  0  0  0  0  0  0  0  0  0  0  0
   -2.3090  -26.5498  -29.8999 O   0  0  0  0  0  0  0  0  0  0  0  0
   -4.2181  -25.9193  -31.5666 O   0  0  0  0  0  0  0  0  0  0  0  0
   -4.4023  -25.3505  -28.8715 O   0  0  0  0  0  0  0  0  0  0  0  0
   -3.6561  -26.3690  -32.2548 H   0  0  0  0  0  0  0  0  0  0  0  0
   -4.4365  -24.4544  -29.2491 H   0  0  0  0  0  0  0  0  0  0  0  0
 31 32  2  0  0  0
 31 33  1  0  0  0
 31 34  1  0  0  0
 31 30  1  0  0  0
 33 35  1  0  0  0
 34 36  1  0  0  0
 26 30  1  0  0  0
 26 27  2  0  0  0
 26 28  1  0  0  0
 26 25  1  0  0  0
 28 29  1  0  0  0
 25 24  1  0  0  0
 24  1  1  0  0  0
  1  2  1  0  0  0
  1  3  1  0  0  0
  2  7  1  0  0  0
  3  4  1  0  0  0
  3  5  1  0  0  0
  4  8  1  0  0  0
  5  6  1  0  0  0
  5  7  1  0  0  0
  6  9  1  0  0  0
  7 10  1  0  0  0
 10 11  1  0  0  0
 10 20  1  0  0  0
 11 12  2  0  0  0
 12 13  2  0  0  0
 13 14  1  0  0  0
 13 20  2  0  0  0
 14 15  2  0  0  0
 14 16  1  0  0  0
 16 17  1  0  0  0
 16 21  1  0  0  0
 17 18  1  0  0  0
 17 19  2  0  0  0
 18 22  1  0  0  0
 18 23  1  0  0  0
 19 20  2  0  0  0
M  END
> <minimizedAffinity>
-10.02126

$$$$
GDP


 36 38  0  0  0  0  0  0  0  0999 V2000
   -5.6208  -22.8481  -25.2156 C   0  0  0  0  0  0  0  0  0  0  0  0
   -5.3213  -23.0695  -26.5788 O   0  0  0  0  0  0  0  0  0  0  0  0
   -6.3978  -21.5554  -25.3573 C   0  0  0  0  0  0  0  0  0  0  0  0
   -6.6575  -20.9569  -24.1393 O   0  0  0  0  0  0  0  0  0  0  0  0
   -5.4127  -20.7707  -26.1985 C   0  0  0  0  0  0  0  0  0  0  0  0
   -4.4256  -20.1704  -25.4095 O   0  0  0  0  0  0  0  0  0  0  0  0
   -4.7626  -21.8749  -27.0050 C   0  0  0  0  0  0  0  0  0  0  0  0
   -7.5738  -20.5616  -24.1952 H   0  0  0  0  0  0  0  0  0  0  0  0
   -4.7361  -19.9500  -24.4998 H   0  0  0  0  0  0  0  0  0  0  0  0
   -4.9631  -21.6052  -28.4093 N   0  0  0  0  0  0  0  0  0  0  0  0
   -5.5082  -20.5173  -28.9721 C   0  0  0  0  0  0  0  0  0  0  0  0
   -5.5178  -20.6447  -30.3258 N   0  0  0  0  0  0  0  0  0  0  0  0
   -4.9746  -21.8242  -30.6420 C   0  0  0  0  0  0  0  0  0  0  0  0
   -4.6952  -22.5379  -31.7869 C   0  0  0  0  0  0  0  0  0  0  0  0
   -4.9956  -22.0254  -32.8941 O   0  0  0  0  0  0  0  0  0  0  0  0
   -4.1091  -23.7681  -31.7370 N   0  0  0  0  0  0  0  0  0  0  0  0
   -3.7949  -24.2996  -30.5362 C   0  0  0  0  0  0  0  0  0  0  0  0
   -3.1824  -25.5752  -30.3912 N   0  0  0  0  0  0  0  0  0  0  0  0
   -4.0624  -23.6138  -29.4184 N   0  0  0  0  0  0  0  0  0  0  0  0
   -4.6341  -22.4114  -29.4419 C   0  0  0  0  0  0  0  0  0  0  0  0
   -3.8954  -24.3131  -32.6039 H   0  0  0  0  0  0  0  0  0  0  0  0
   -3.7690  -26.4377  -30.5702 H   0  0  0  0  0  0  0  0  0  0  0  0
   -2.1734  -25.6541  -30.1134 H   0  0  0  0  0  0  0  0  0  0  0  0
   -6.4218  -23.9553  -24.6269 C   0  0  0  0  0  0  0  0  0  0  0  0
   -6.8903  -24.7271  -25.6906 O   0  0  0  0  0  0  0  0  0  0  0  0
   -6.7068  -26.3709  -25.4700 P   0  0  0  0  0  0  0  0  0  0  0  0
   -7.8008  -26.9777  -24.6214 O   0  0  0  0  0  0  0  0  0  0  0  0
   -5.2281  -26.8221  -24.8354 O   0  0  0  0  0  0  0  0  0  0  0  0
   -4.6322  -26.0503  -24.7227 H   0  0  0  0  0  0  0  0  0  0  0  0
   -6.8804  -27.0955  -27.0047 O   0  0  0  0  0  0  0  0  0  0  0  0
   -5.4007  -27.0744  -27.8051 P   0  0  0  0  0  0  0  0  0  0  0  0
   -4.5952  -28.3305  -27.5293 O   0  0  0  0  0  0  0  0  0  0  0  0
   -5.6798  -26.9542  -29.4657 O   0  0  0  0  0  0  0  0  0  0  0  0
   -4.5436  -25.7210  -27.2727 O   0  0  0  0  0  0  0  0  0  0  0  0
   -5.9146  -27.8399  -29.8555 H   0  0  0  0  0  0  0  0  0  0  0  0
   -3.9842  -25.3712  -27.9879 H   0  0  0  0  0  0  0  0  0  0  0  0
 31 32  2  0  0  0
 31 33  1  0  0  0
 31 34  1  0  0  0
 31 30  1  0  0  0
 33 35  1  0  0  0
 34 36  1  0  0  0
 26 30  1  0  0  0
 26 27  2  0  0  0
 26 28  1  0  0  0
 26 25  1  0  0  0
 28 29  1  0  0  0
 25 24  1  0  0  0
 24  1  1  0  0  0
  1  2  1  0  0  0
  1  3  1  0  0  0
  2  7  1  0  0  0
  3  4  1  0  0  0
  3  5  1  0  0  0
  4  8  1  0  0  0
  5  6  1  0  0  0
  5  7  1  0  0  0
  6  9  1  0  0  0
  7 10  1  0  0  0
 10 11  1  0  0  0
 10 20  1  0  0  0
 11 12  2  0  0  0
 12 13  2  0  0  0
 13 14  1  0  0  0
 13 20  2  0  0  0
 14 15  2  0  0  0
 14 16  1  0  0  0
 16 17  1  0  0  0
 16 21  1  0  0  0
 17 18  1  0  0  0
 17 19  2  0  0  0
 18 22  1  0  0  0
 18 23  1  0  0  0
 19 20  2  0  0  0
M  END
> <minimizedAffinity>
-9.96920

$$$$
GDP


 36 38  0  0  0  0  0  0  0  0999 V2000
   -4.3541  -23.5057  -30.0096 C   0  0  0  0  0  0  0  0  0  0  0  0
   -3.4152  -23.7502  -31.0371 O   0  0  0  0  0  0  0  0  0  0  0  0
   -3.9209  -24.5857  -29.0397 C   0  0  0  0  0  0  0  0  0  0  0  0
   -4.8072  -24.7433  -27.9915 O   0  0  0  0  0  0  0  0  0  0  0  0
   -3.9116  -25.7703  -29.9834 C   0  0  0  0  0  0  0  0  0  0  0  0
   -5.1893  -26.3206  -30.1315 O   0  0  0  0  0  0  0  0  0  0  0  0
   -3.5309  -25.1079  -31.2905 C   0  0  0  0  0  0  0  0  0  0  0  0
   -4.2647  -24.9306  -27.1732 H   0  0  0  0  0  0  0  0  0  0  0  0
   -5.7584  -26.2014  -29.3349 H   0  0  0  0  0  0  0  0  0  0  0  0
   -2.3170  -25.7149  -31.7834 N   0  0  0  0  0  0  0  0  0  0  0  0
   -1.4459  -26.4825  -31.1132 C   0  0  0  0  0  0  0  0  0  0  0  0
   -0.4277  -26.8604  -31.9315 N   0  0  0  0  0  0  0  0  0  0  0  0
   -0.6414  -26.3334  -33.1409 C   0  0  0  0  0  0  0  0  0  0  0  0
   -0.0182  -26.3287  -34.3698 C   0  0  0  0  0  0  0  0  0  0  0  0
    1.0566  -26.9677  -34.4928 O   0  0  0  0  0  0  0  0  0  0  0  0
   -0.5406  -25.6540  -35.4333 N   0  0  0  0  0  0  0  0  0  0  0  0
   -1.6967  -24.9739  -35.2783 C   0  0  0  0  0  0  0  0  0  0  0  0
   -2.3119  -24.2436  -36.3326 N   0  0  0  0  0  0  0  0  0  0  0  0
   -2.3094  -24.9726  -34.0884 N   0  0  0  0  0  0  0  0  0  0  0  0
   -1.8188  -25.6237  -33.0356 C   0  0  0  0  0  0  0  0  0  0  0  0
   -0.0706  -25.6480  -36.3678 H   0  0  0  0  0  0  0  0  0  0  0  0
   -1.8683  -23.3327  -36.6385 H   0  0  0  0  0  0  0  0  0  0  0  0
   -3.1841  -24.6031  -36.7927 H   0  0  0  0  0  0  0  0  0  0  0  0
   -4.2351  -22.1312  -29.4522 C   0  0  0  0  0  0  0  0  0  0  0  0
   -5.5299  -21.6935  -29.1722 O   0  0  0  0  0  0  0  0  0  0  0  0
   -5.7742  -21.2706  -27.5766 P   0  0  0  0  0  0  0  0  0  0  0  0
   -6.1035  -22.4546  -26.6965 O   0  0  0  0  0  0  0  0  0  0  0  0
   -6.9380  -20.0939  -27.3441 O   0  0  0  0  0  0  0  0  0  0  0  0
   -7.2939  -19.7636  -28.1972 H   0  0  0  0  0  0  0  0  0  0  0  0
   -4.2845  -20.6810  -26.9905 O   0  0  0  0  0  0  0  0  0  0  0  0
   -4.2369  -19.0081  -27.1626 P   0  0  0  0  0  0  0  0  0  0  0  0
   -2.8137  -18.4965  -27.2862 O   0  0  0  0  0  0  0  0  0  0  0  0
   -5.0980  -18.5772  -28.5493 O   0  0  0  0  0  0  0  0  0  0  0  0
   -4.9699  -18.3268  -25.8030 O   0  0  0  0  0  0  0  0  0  0  0  0
   -4.5484  -18.7096  -29.3690 H   0  0  0  0  0  0  0  0  0  0  0  0
   -5.4194  -17.4971  -26.0404 H   0  0  0  0  0  0  0  0  0  0  0  0
 31 32  2  0  0  0
 31 33  1  0  0  0
 31 34  1  0  0  0
 31 30  1  0  0  0
 33 35  1  0  0  0
 34 36  1  0  0  0
 26 30  1  0  0  0
 26 27  2  0  0  0
 26 28  1  0  0  0
 26 25  1  0  0  0
 28 29  1  0  0  0
 25 24  1  0  0  0
 24  1  1  0  0  0
  1  2  1  0  0  0
  1  3  1  0  0  0
  2  7  1  0  0  0
  3  4  1  0  0  0
  3  5  1  0  0  0
  4  8  1  0  0  0
  5  6  1  0  0  0
  5  7  1  0  0  0
  6  9  1  0  0  0
  7 10  1  0  0  0
 10 11  1  0  0  0
 10 20  1  0  0  0
 11 12  2  0  0  0
 12 13  2  0  0  0
 13 14  1  0  0  0
 13 20  2  0  0  0
 14 15  2  0  0  0
 14 16  1  0  0  0
 16 17  1  0  0  0
 16 21  1  0  0  0
 17 18  1  0  0  0
 17 19  2  0  0  0
 18 22  1  0  0  0
 18 23  1  0  0  0
 19 20  2  0  0  0
M  END
> <minimizedAffinity>
-9.93778

$$$$
GDP


 36 38  0  0  0  0  0  0  0  0999 V2000
   -2.8183  -25.5838  -29.3237 C   0  0  0  0  0  0  0  0  0  0  0  0
   -3.4666  -24.4793  -28.7264 O   0  0  0  0  0  0  0  0  0  0  0  0
   -2.1212  -24.8575  -30.4556 C   0  0  0  0  0  0  0  0  0  0  0  0
   -1.5540  -25.7233  -31.3710 O   0  0  0  0  0  0  0  0  0  0  0  0
   -3.3029  -24.0974  -31.0209 C   0  0  0  0  0  0  0  0  0  0  0  0
   -4.0516  -24.8886  -31.8989 O   0  0  0  0  0  0  0  0  0  0  0  0
   -4.1316  -23.8643  -29.7755 C   0  0  0  0  0  0  0  0  0  0  0  0
   -0.6899  -25.3159  -31.6649 H   0  0  0  0  0  0  0  0  0  0  0  0
   -3.5132  -25.5750  -32.3587 H   0  0  0  0  0  0  0  0  0  0  0  0
   -4.3142  -22.4431  -29.5974 N   0  0  0  0  0  0  0  0  0  0  0  0
   -3.8218  -21.4465  -30.3468 C   0  0  0  0  0  0  0  0  0  0  0  0
   -4.2215  -20.2452  -29.8507 N   0  0  0  0  0  0  0  0  0  0  0  0
   -4.9785  -20.4658  -28.7717 C   0  0  0  0  0  0  0  0  0  0  0  0
   -5.6665  -19.7139  -27.8444 C   0  0  0  0  0  0  0  0  0  0  0  0
   -5.6374  -18.4626  -27.9552 O   0  0  0  0  0  0  0  0  0  0  0  0
   -6.3647  -20.2964  -26.8283 N   0  0  0  0  0  0  0  0  0  0  0  0
   -6.3823  -21.6428  -26.7285 C   0  0  0  0  0  0  0  0  0  0  0  0
   -7.0838  -22.3333  -25.7016 N   0  0  0  0  0  0  0  0  0  0  0  0
   -5.7171  -22.3816  -27.6245 N   0  0  0  0  0  0  0  0  0  0  0  0
   -5.0284  -21.8358  -28.6250 C   0  0  0  0  0  0  0  0  0  0  0  0
   -6.8883  -19.7291  -26.1224 H   0  0  0  0  0  0  0  0  0  0  0  0
   -6.6891  -22.3096  -24.7199 H   0  0  0  0  0  0  0  0  0  0  0  0
   -7.9704  -22.8520  -25.9170 H   0  0  0  0  0  0  0  0  0  0  0  0
   -1.8776  -26.2588  -28.3890 C   0  0  0  0  0  0  0  0  0  0  0  0
   -1.7644  -27.5830  -28.8134 O   0  0  0  0  0  0  0  0  0  0  0  0
   -3.1912  -28.4450  -28.7384 P   0  0  0  0  0  0  0  0  0  0  0  0
   -2.9885  -29.8868  -28.3319 O   0  0  0  0  0  0  0  0  0  0  0  0
   -4.0943  -28.4098  -30.1442 O   0  0  0  0  0  0  0  0  0  0  0  0
   -3.6833  -27.8330  -30.8238 H   0  0  0  0  0  0  0  0  0  0  0  0
   -4.1175  -27.7546  -27.4831 O   0  0  0  0  0  0  0  0  0  0  0  0
   -5.7539  -27.9281  -27.8335 P   0  0  0  0  0  0  0  0  0  0  0  0
   -6.6187  -27.6877  -26.6100 O   0  0  0  0  0  0  0  0  0  0  0  0
   -6.1765  -26.8168  -29.0321 O   0  0  0  0  0  0  0  0  0  0  0  0
   -5.9977  -29.4987  -28.4023 O   0  0  0  0  0  0  0  0  0  0  0  0
   -6.3220  -25.9105  -28.6463 H   0  0  0  0  0  0  0  0  0  0  0  0
   -6.7157  -29.5137  -29.0589 H   0  0  0  0  0  0  0  0  0  0  0  0
 31 32  2  0  0  0
 31 33  1  0  0  0
 31 34  1  0  0  0
 31 30  1  0  0  0
 33 35  1  0  0  0
 34 36  1  0  0  0
 26 30  1  0  0  0
 26 27  2  0  0  0
 26 28  1  0  0  0
 26 25  1  0  0  0
 28 29  1  0  0  0
 25 24  1  0  0  0
 24  1  1  0  0  0
  1  2  1  0  0  0
  1  3  1  0  0  0
  2  7  1  0  0  0
  3  4  1  0  0  0
  3  5  1  0  0  0
  4  8  1  0  0  0
  5  6  1  0  0  0
  5  7  1  0  0  0
  6  9  1  0  0  0
  7 10  1  0  0  0
 10 11  1  0  0  0
 10 20  1  0  0  0
 11 12  2  0  0  0
 12 13  2  0  0  0
 13 14  1  0  0  0
 13 20  2  0  0  0
 14 15  2  0  0  0
 14 16  1  0  0  0
 16 17  1  0  0  0
 16 21  1  0  0  0
 17 18  1  0  0  0
 17 19  2  0  0  0
 18 22  1  0  0  0
 18 23  1  0  0  0
 19 20  2  0  0  0
M  END
> <minimizedAffinity>
-9.90754

$$$$
GDP


 36 38  0  0  0  0  0  0  0  0999 V2000
   -3.7463  -26.1943  -29.1112 C   0  0  0  0  0  0  0  0  0  0  0  0
   -4.9330  -26.1513  -28.3451 O   0  0  0  0  0  0  0  0  0  0  0  0
   -3.9117  -27.5737  -29.7151 C   0  0  0  0  0  0  0  0  0  0  0  0
   -2.7749  -28.0046  -30.3718 O   0  0  0  0  0  0  0  0  0  0  0  0
   -4.1931  -28.3600  -28.4516 C   0  0  0  0  0  0  0  0  0  0  0  0
   -3.0113  -28.7157  -27.7927 O   0  0  0  0  0  0  0  0  0  0  0  0
   -4.9079  -27.3252  -27.6087 C   0  0  0  0  0  0  0  0  0  0  0  0
   -3.0757  -28.5060  -31.1824 H   0  0  0  0  0  0  0  0  0  0  0  0
   -2.2449  -28.8284  -28.4030 H   0  0  0  0  0  0  0  0  0  0  0  0
   -6.2177  -27.8277  -27.2670 N   0  0  0  0  0  0  0  0  0  0  0  0
   -6.8530  -28.8926  -27.7765 C   0  0  0  0  0  0  0  0  0  0  0  0
   -8.0721  -29.0355  -27.1914 N   0  0  0  0  0  0  0  0  0  0  0  0
   -8.2273  -28.0556  -26.2961 C   0  0  0  0  0  0  0  0  0  0  0  0
   -9.1900  -27.6425  -25.4012 C   0  0  0  0  0  0  0  0  0  0  0  0
  -10.2565  -28.3029  -25.3296 O   0  0  0  0  0  0  0  0  0  0  0  0
   -9.0060  -26.5489  -24.6078 N   0  0  0  0  0  0  0  0  0  0  0  0
   -7.8521  -25.8540  -24.7015 C   0  0  0  0  0  0  0  0  0  0  0  0
   -7.5763  -24.7024  -23.9133 N   0  0  0  0  0  0  0  0  0  0  0  0
   -6.9109  -26.2477  -25.5678 N   0  0  0  0  0  0  0  0  0  0  0  0
   -7.0677  -27.3118  -26.3527 C   0  0  0  0  0  0  0  0  0  0  0  0
   -9.7344  -26.2320  -23.9272 H   0  0  0  0  0  0  0  0  0  0  0  0
   -8.0851  -23.8031  -24.1422 H   0  0  0  0  0  0  0  0  0  0  0  0
   -6.8846  -24.7483  -23.1253 H   0  0  0  0  0  0  0  0  0  0  0  0
   -3.6914  -25.1090  -30.1277 C   0  0  0  0  0  0  0  0  0  0  0  0
   -2.3804  -25.0641  -30.6028 O   0  0  0  0  0  0  0  0  0  0  0  0
   -2.2628  -24.9593  -32.2640 P   0  0  0  0  0  0  0  0  0  0  0  0
   -2.9717  -23.7502  -32.8302 O   0  0  0  0  0  0  0  0  0  0  0  0
   -2.7915  -26.3180  -33.0811 O   0  0  0  0  0  0  0  0  0  0  0  0
   -3.0577  -27.0316  -32.4620 H   0  0  0  0  0  0  0  0  0  0  0  0
   -0.6133  -24.7182  -32.6261 O   0  0  0  0  0  0  0  0  0  0  0  0
    0.1559  -26.2089  -32.7556 P   0  0  0  0  0  0  0  0  0  0  0  0
    1.6599  -26.0800  -32.6008 O   0  0  0  0  0  0  0  0  0  0  0  0
   -0.4346  -27.2344  -31.5515 O   0  0  0  0  0  0  0  0  0  0  0  0
   -0.2065  -26.8480  -34.2755 O   0  0  0  0  0  0  0  0  0  0  0  0
    0.0018  -27.0489  -30.6759 H   0  0  0  0  0  0  0  0  0  0  0  0
   -0.2513  -27.8191  -34.2328 H   0  0  0  0  0  0  0  0  0  0  0  0
 31 32  2  0  0  0
 31 33  1  0  0  0
 31 34  1  0  0  0
 31 30  1  0  0  0
 33 35  1  0  0  0
 34 36  1  0  0  0
 26 30  1  0  0  0
 26 27  2  0  0  0
 26 28  1  0  0  0
 26 25  1  0  0  0
 28 29  1  0  0  0
 25 24  1  0  0  0
 24  1  1  0  0  0
  1  2  1  0  0  0
  1  3  1  0  0  0
  2  7  1  0  0  0
  3  4  1  0  0  0
  3  5  1  0  0  0
  4  8  1  0  0  0
  5  6  1  0  0  0
  5  7  1  0  0  0
  6  9  1  0  0  0
  7 10  1  0  0  0
 10 11  1  0  0  0
 10 20  1  0  0  0
 11 12  2  0  0  0
 12 13  2  0  0  0
 13 14  1  0  0  0
 13 20  2  0  0  0
 14 15  2  0  0  0
 14 16  1  0  0  0
 16 17  1  0  0  0
 16 21  1  0  0  0
 17 18  1  0  0  0
 17 19  2  0  0  0
 18 22  1  0  0  0
 18 23  1  0  0  0
 19 20  2  0  0  0
M  END
> <minimizedAffinity>
-9.86165

$$$$
GDP


 36 38  0  0  0  0  0  0  0  0999 V2000
   -3.7256  -24.5966  -31.0314 C   0  0  0  0  0  0  0  0  0  0  0  0
   -4.0130  -23.7671  -29.9239 O   0  0  0  0  0  0  0  0  0  0  0  0
   -3.0936  -23.5602  -31.9376 C   0  0  0  0  0  0  0  0  0  0  0  0
   -2.8878  -24.0323  -33.2198 O   0  0  0  0  0  0  0  0  0  0  0  0
   -4.1657  -22.4925  -31.8705 C   0  0  0  0  0  0  0  0  0  0  0  0
   -5.2038  -22.7479  -32.7730 O   0  0  0  0  0  0  0  0  0  0  0  0
   -4.7012  -22.6946  -30.4689 C   0  0  0  0  0  0  0  0  0  0  0  0
   -2.0200  -23.6517  -33.5376 H   0  0  0  0  0  0  0  0  0  0  0  0
   -4.9099  -23.2436  -33.5732 H   0  0  0  0  0  0  0  0  0  0  0  0
   -4.5448  -21.4644  -29.7292 N   0  0  0  0  0  0  0  0  0  0  0  0
   -3.8678  -20.3646  -30.0886 C   0  0  0  0  0  0  0  0  0  0  0  0
   -3.9599  -19.4186  -29.1162 N   0  0  0  0  0  0  0  0  0  0  0  0
   -4.7024  -19.9098  -28.1195 C   0  0  0  0  0  0  0  0  0  0  0  0
   -5.1605  -19.4850  -26.8914 C   0  0  0  0  0  0  0  0  0  0  0  0
   -4.8491  -18.3293  -26.5089 O   0  0  0  0  0  0  0  0  0  0  0  0
   -5.9315  -20.2847  -26.1006 N   0  0  0  0  0  0  0  0  0  0  0  0
   -6.2539  -21.5230  -26.5317 C   0  0  0  0  0  0  0  0  0  0  0  0
   -7.0525  -22.4228  -25.7728 N   0  0  0  0  0  0  0  0  0  0  0  0
   -5.8137  -21.9445  -27.7233 N   0  0  0  0  0  0  0  0  0  0  0  0
   -5.0598  -21.1820  -28.5128 C   0  0  0  0  0  0  0  0  0  0  0  0
   -6.2811  -19.9659  -25.1677 H   0  0  0  0  0  0  0  0  0  0  0  0
   -6.6229  -22.8793  -24.9200 H   0  0  0  0  0  0  0  0  0  0  0  0
   -8.0426  -22.6259  -26.0553 H   0  0  0  0  0  0  0  0  0  0  0  0
   -2.8043  -25.7103  -30.6779 C   0  0  0  0  0  0  0  0  0  0  0  0
   -3.0737  -26.0547  -29.3531 O   0  0  0  0  0  0  0  0  0  0  0  0
   -4.3121  -27.1590  -29.1763 P   0  0  0  0  0  0  0  0  0  0  0  0
   -4.0774  -28.4370  -29.9488 O   0  0  0  0  0  0  0  0  0  0  0  0
   -5.8254  -26.5689  -29.5698 O   0  0  0  0  0  0  0  0  0  0  0  0
   -5.7919  -25.6172  -29.8077 H   0  0  0  0  0  0  0  0  0  0  0  0
   -4.3238  -27.6265  -27.5356 O   0  0  0  0  0  0  0  0  0  0  0  0
   -5.2707  -26.5515  -26.6533 P   0  0  0  0  0  0  0  0  0  0  0  0
   -6.7519  -26.8157  -26.8503 O   0  0  0  0  0  0  0  0  0  0  0  0
   -4.8969  -26.7125  -25.0149 O   0  0  0  0  0  0  0  0  0  0  0  0
   -4.8982  -24.9885  -27.1710 O   0  0  0  0  0  0  0  0  0  0  0  0
   -5.3605  -27.4985  -24.6163 H   0  0  0  0  0  0  0  0  0  0  0  0
   -4.9830  -24.3583  -26.4344 H   0  0  0  0  0  0  0  0  0  0  0  0
 31 32  2  0  0  0
 31 33  1  0  0  0
 31 34  1  0  0  0
 31 30  1  0  0  0
 33 35  1  0  0  0
 34 36  1  0  0  0
 26 30  1  0  0  0
 26 27  2  0  0  0
 26 28  1  0  0  0
 26 25  1  0  0  0
 28 29  1  0  0  0
 25 24  1  0  0  0
 24  1  1  0  0  0
  1  2  1  0  0  0
  1  3  1  0  0  0
  2  7  1  0  0  0
  3  4  1  0  0  0
  3  5  1  0  0  0
  4  8  1  0  0  0
  5  6  1  0  0  0
  5  7  1  0  0  0
  6  9  1  0  0  0
  7 10  1  0  0  0
 10 11  1  0  0  0
 10 20  1  0  0  0
 11 12  2  0  0  0
 12 13  2  0  0  0
 13 14  1  0  0  0
 13 20  2  0  0  0
 14 15  2  0  0  0
 14 16  1  0  0  0
 16 17  1  0  0  0
 16 21  1  0  0  0
 17 18  1  0  0  0
 17 19  2  0  0  0
 18 22  1  0  0  0
 18 23  1  0  0  0
 19 20  2  0  0  0
M  END
> <minimizedAffinity>
-9.82626

$$$$
GDP


 36 38  0  0  0  0  0  0  0  0999 V2000
   -3.7122  -26.1852  -29.0418 C   0  0  0  0  0  0  0  0  0  0  0  0
   -4.7196  -26.0716  -28.0800 O   0  0  0  0  0  0  0  0  0  0  0  0
   -4.0044  -27.5786  -29.5579 C   0  0  0  0  0  0  0  0  0  0  0  0
   -3.0219  -28.0550  -30.4017 O   0  0  0  0  0  0  0  0  0  0  0  0
   -4.0269  -28.3034  -28.2238 C   0  0  0  0  0  0  0  0  0  0  0  0
   -2.7577  -28.4275  -27.7113 O   0  0  0  0  0  0  0  0  0  0  0  0
   -4.7724  -27.2640  -27.3994 C   0  0  0  0  0  0  0  0  0  0  0  0
   -3.4727  -28.4270  -31.2027 H   0  0  0  0  0  0  0  0  0  0  0  0
   -2.5832  -27.7592  -26.9785 H   0  0  0  0  0  0  0  0  0  0  0  0
   -6.1275  -27.7661  -27.2370 N   0  0  0  0  0  0  0  0  0  0  0  0
   -6.7441  -28.7705  -27.8843 C   0  0  0  0  0  0  0  0  0  0  0  0
   -8.0090  -28.8837  -27.4024 N   0  0  0  0  0  0  0  0  0  0  0  0
   -8.1795  -27.9459  -26.4515 C   0  0  0  0  0  0  0  0  0  0  0  0
   -9.2027  -27.5552  -25.6133 C   0  0  0  0  0  0  0  0  0  0  0  0
  -10.3147  -28.1740  -25.6722 O   0  0  0  0  0  0  0  0  0  0  0  0
   -9.0676  -26.5398  -24.7321 N   0  0  0  0  0  0  0  0  0  0  0  0
   -7.9100  -25.8664  -24.6435 C   0  0  0  0  0  0  0  0  0  0  0  0
   -7.7109  -24.7829  -23.7286 N   0  0  0  0  0  0  0  0  0  0  0  0
   -6.8896  -26.2291  -25.4545 N   0  0  0  0  0  0  0  0  0  0  0  0
   -6.9884  -27.2388  -26.3470 C   0  0  0  0  0  0  0  0  0  0  0  0
   -9.8486  -26.2411  -24.0917 H   0  0  0  0  0  0  0  0  0  0  0  0
   -7.0140  -24.0314  -23.9862 H   0  0  0  0  0  0  0  0  0  0  0  0
   -8.2380  -24.7198  -22.8156 H   0  0  0  0  0  0  0  0  0  0  0  0
   -3.7936  -25.1383  -30.0924 C   0  0  0  0  0  0  0  0  0  0  0  0
   -2.5071  -24.8148  -30.5184 O   0  0  0  0  0  0  0  0  0  0  0  0
   -2.3163  -24.8241  -32.1780 P   0  0  0  0  0  0  0  0  0  0  0  0
   -3.1051  -23.6625  -32.7735 O   0  0  0  0  0  0  0  0  0  0  0  0
   -2.9973  -26.2411  -32.8527 O   0  0  0  0  0  0  0  0  0  0  0  0
   -3.6335  -26.6057  -32.1667 H   0  0  0  0  0  0  0  0  0  0  0  0
   -0.7137  -24.7571  -32.6591 O   0  0  0  0  0  0  0  0  0  0  0  0
    0.0015  -26.2661  -32.4322 P   0  0  0  0  0  0  0  0  0  0  0  0
    1.5039  -26.1117  -32.3388 O   0  0  0  0  0  0  0  0  0  0  0  0
   -0.6212  -26.9492  -31.0232 O   0  0  0  0  0  0  0  0  0  0  0  0
   -0.3604  -27.2151  -33.7908 O   0  0  0  0  0  0  0  0  0  0  0  0
   -0.8214  -27.9042  -31.1903 H   0  0  0  0  0  0  0  0  0  0  0  0
   -1.3003  -26.9771  -34.0451 H   0  0  0  0  0  0  0  0  0  0  0  0
 31 32  2  0  0  0
 31 33  1  0  0  0
 31 34  1  0  0  0
 31 30  1  0  0  0
 33 35  1  0  0  0
 34 36  1  0  0  0
 26 30  1  0  0  0
 26 27  2  0  0  0
 26 28  1  0  0  0
 26 25  1  0  0  0
 28 29  1  0  0  0
 25 24  1  0  0  0
 24  1  1  0  0  0
  1  2  1  0  0  0
  1  3  1  0  0  0
  2  7  1  0  0  0
  3  4  1  0  0  0
  3  5  1  0  0  0
  4  8  1  0  0  0
  5  6  1  0  0  0
  5  7  1  0  0  0
  6  9  1  0  0  0
  7 10  1  0  0  0
 10 11  1  0  0  0
 10 20  1  0  0  0
 11 12  2  0  0  0
 12 13  2  0  0  0
 13 14  1  0  0  0
 13 20  2  0  0  0
 14 15  2  0  0  0
 14 16  1  0  0  0
 16 17  1  0  0  0
 16 21  1  0  0  0
 17 18  1  0  0  0
 17 19  2  0  0  0
 18 22  1  0  0  0
 18 23  1  0  0  0
 19 20  2  0  0  0
M  END
> <minimizedAffinity>
-9.80271

$$$$
GDP


 36 38  0  0  0  0  0  0  0  0999 V2000
   -6.1474  -22.2046  -24.6089 C   0  0  0  0  0  0  0  0  0  0  0  0
   -6.4532  -23.2898  -25.4345 O   0  0  0  0  0  0  0  0  0  0  0  0
   -4.7048  -22.5283  -24.2815 C   0  0  0  0  0  0  0  0  0  0  0  0
   -4.1830  -21.7152  -23.2961 O   0  0  0  0  0  0  0  0  0  0  0  0
   -4.9051  -23.9578  -23.8101 C   0  0  0  0  0  0  0  0  0  0  0  0
   -5.5121  -23.9875  -22.5774 O   0  0  0  0  0  0  0  0  0  0  0  0
   -5.9190  -24.4126  -24.8499 C   0  0  0  0  0  0  0  0  0  0  0  0
   -3.3011  -21.3917  -23.6137 H   0  0  0  0  0  0  0  0  0  0  0  0
   -6.4904  -24.2158  -22.6476 H   0  0  0  0  0  0  0  0  0  0  0  0
   -5.1927  -25.2517  -25.7896 N   0  0  0  0  0  0  0  0  0  0  0  0
   -3.8924  -25.2161  -26.1303 C   0  0  0  0  0  0  0  0  0  0  0  0
   -3.6587  -26.1905  -27.0473 N   0  0  0  0  0  0  0  0  0  0  0  0
   -4.8184  -26.8346  -27.2777 C   0  0  0  0  0  0  0  0  0  0  0  0
   -5.2321  -27.8823  -28.0735 C   0  0  0  0  0  0  0  0  0  0  0  0
   -4.3777  -28.4597  -28.8214 O   0  0  0  0  0  0  0  0  0  0  0  0
   -6.5111  -28.3180  -28.0879 N   0  0  0  0  0  0  0  0  0  0  0  0
   -7.4371  -27.7327  -27.3125 C   0  0  0  0  0  0  0  0  0  0  0  0
   -8.8059  -28.1528  -27.2875 N   0  0  0  0  0  0  0  0  0  0  0  0
   -7.0581  -26.7023  -26.5219 N   0  0  0  0  0  0  0  0  0  0  0  0
   -5.7891  -26.2402  -26.4814 C   0  0  0  0  0  0  0  0  0  0  0  0
   -6.8275  -29.1181  -28.6954 H   0  0  0  0  0  0  0  0  0  0  0  0
   -9.5452  -27.4370  -27.0472 H   0  0  0  0  0  0  0  0  0  0  0  0
   -9.0880  -29.1479  -27.5011 H   0  0  0  0  0  0  0  0  0  0  0  0
   -6.3182  -20.8944  -25.2874 C   0  0  0  0  0  0  0  0  0  0  0  0
   -5.2104  -20.6484  -26.0957 O   0  0  0  0  0  0  0  0  0  0  0  0
   -5.5472  -20.6484  -27.7319 P   0  0  0  0  0  0  0  0  0  0  0  0
   -6.0782  -19.2746  -28.1281 O   0  0  0  0  0  0  0  0  0  0  0  0
   -6.8060  -21.7517  -28.0858 O   0  0  0  0  0  0  0  0  0  0  0  0
   -7.2830  -21.9266  -27.2197 H   0  0  0  0  0  0  0  0  0  0  0  0
   -4.2301  -21.0669  -28.6776 O   0  0  0  0  0  0  0  0  0  0  0  0
   -4.7613  -21.4905  -30.2199 P   0  0  0  0  0  0  0  0  0  0  0  0
   -3.6480  -21.2751  -31.2218 O   0  0  0  0  0  0  0  0  0  0  0  0
   -5.2452  -23.1045  -30.1967 O   0  0  0  0  0  0  0  0  0  0  0  0
   -6.0521  -20.4644  -30.6179 O   0  0  0  0  0  0  0  0  0  0  0  0
   -6.0951  -23.1924  -30.6969 H   0  0  0  0  0  0  0  0  0  0  0  0
   -6.5690  -20.3371  -29.7686 H   0  0  0  0  0  0  0  0  0  0  0  0
 31 32  2  0  0  0
 31 33  1  0  0  0
 31 34  1  0  0  0
 31 30  1  0  0  0
 33 35  1  0  0  0
 34 36  1  0  0  0
 26 30  1  0  0  0
 26 27  2  0  0  0
 26 28  1  0  0  0
 26 25  1  0  0  0
 28 29  1  0  0  0
 25 24  1  0  0  0
 24  1  1  0  0  0
  1  2  1  0  0  0
  1  3  1  0  0  0
  2  7  1  0  0  0
  3  4  1  0  0  0
  3  5  1  0  0  0
  4  8  1  0  0  0
  5  6  1  0  0  0
  5  7  1  0  0  0
  6  9  1  0  0  0
  7 10  1  0  0  0
 10 11  1  0  0  0
 10 20  1  0  0  0
 11 12  2  0  0  0
 12 13  2  0  0  0
 13 14  1  0  0  0
 13 20  2  0  0  0
 14 15  2  0  0  0
 14 16  1  0  0  0
 16 17  1  0  0  0
 16 21  1  0  0  0
 17 18  1  0  0  0
 17 19  2  0  0  0
 18 22  1  0  0  0
 18 23  1  0  0  0
 19 20  2  0  0  0
M  END
> <minimizedAffinity>
-9.79387

$$$$
GDP


 36 38  0  0  0  0  0  0  0  0999 V2000
   -5.0111  -24.0837  -25.1630 C   0  0  0  0  0  0  0  0  0  0  0  0
   -4.3854  -23.2130  -26.0592 O   0  0  0  0  0  0  0  0  0  0  0  0
   -6.4133  -23.5123  -25.1849 C   0  0  0  0  0  0  0  0  0  0  0  0
   -7.2309  -24.0601  -24.2174 O   0  0  0  0  0  0  0  0  0  0  0  0
   -6.0615  -22.0636  -24.8968 C   0  0  0  0  0  0  0  0  0  0  0  0
   -5.6861  -21.9013  -23.5847 O   0  0  0  0  0  0  0  0  0  0  0  0
   -4.8176  -21.9423  -25.7652 C   0  0  0  0  0  0  0  0  0  0  0  0
   -8.0843  -24.3101  -24.6560 H   0  0  0  0  0  0  0  0  0  0  0  0
   -4.6865  -21.8256  -23.4883 H   0  0  0  0  0  0  0  0  0  0  0  0
   -5.2141  -21.1898  -26.9446 N   0  0  0  0  0  0  0  0  0  0  0  0
   -5.8237  -19.9939  -27.0236 C   0  0  0  0  0  0  0  0  0  0  0  0
   -5.9972  -19.6824  -28.3342 N   0  0  0  0  0  0  0  0  0  0  0  0
   -5.4934  -20.6888  -29.0733 C   0  0  0  0  0  0  0  0  0  0  0  0
   -5.3669  -20.9673  -30.4181 C   0  0  0  0  0  0  0  0  0  0  0  0
   -5.8066  -20.1224  -31.2640 O   0  0  0  0  0  0  0  0  0  0  0  0
   -4.7934  -22.1042  -30.8701 N   0  0  0  0  0  0  0  0  0  0  0  0
   -4.3194  -23.0160  -30.0068 C   0  0  0  0  0  0  0  0  0  0  0  0
   -3.7025  -24.2373  -30.4293 N   0  0  0  0  0  0  0  0  0  0  0  0
   -4.4307  -22.7678  -28.6815 N   0  0  0  0  0  0  0  0  0  0  0  0
   -4.9978  -21.6427  -28.1934 C   0  0  0  0  0  0  0  0  0  0  0  0
   -4.6965  -22.3174  -31.8970 H   0  0  0  0  0  0  0  0  0  0  0  0
   -3.7607  -25.0757  -29.7888 H   0  0  0  0  0  0  0  0  0  0  0  0
   -3.1982  -24.3167  -31.3539 H   0  0  0  0  0  0  0  0  0  0  0  0
   -4.9463  -25.5037  -25.5940 C   0  0  0  0  0  0  0  0  0  0  0  0
   -5.5804  -25.6382  -26.8273 O   0  0  0  0  0  0  0  0  0  0  0  0
   -4.7323  -26.5600  -27.9327 P   0  0  0  0  0  0  0  0  0  0  0  0
   -3.3671  -25.9215  -28.1660 O   0  0  0  0  0  0  0  0  0  0  0  0
   -5.5165  -26.5463  -29.4532 O   0  0  0  0  0  0  0  0  0  0  0  0
   -6.1296  -25.7512  -29.4501 H   0  0  0  0  0  0  0  0  0  0  0  0
   -4.5636  -28.1598  -27.4674 O   0  0  0  0  0  0  0  0  0  0  0  0
   -3.3172  -28.8706  -28.3514 P   0  0  0  0  0  0  0  0  0  0  0  0
   -3.3256  -30.3681  -28.1351 O   0  0  0  0  0  0  0  0  0  0  0  0
   -3.5335  -28.4973  -29.9804 O   0  0  0  0  0  0  0  0  0  0  0  0
   -1.8523  -28.2484  -27.7645 O   0  0  0  0  0  0  0  0  0  0  0  0
   -2.6588  -28.2490  -30.3721 H   0  0  0  0  0  0  0  0  0  0  0  0
   -2.0304  -27.2836  -27.5592 H   0  0  0  0  0  0  0  0  0  0  0  0
 31 32  2  0  0  0
 31 33  1  0  0  0
 31 34  1  0  0  0
 31 30  1  0  0  0
 33 35  1  0  0  0
 34 36  1  0  0  0
 26 30  1  0  0  0
 26 27  2  0  0  0
 26 28  1  0  0  0
 26 25  1  0  0  0
 28 29  1  0  0  0
 25 24  1  0  0  0
 24  1  1  0  0  0
  1  2  1  0  0  0
  1  3  1  0  0  0
  2  7  1  0  0  0
  3  4  1  0  0  0
  3  5  1  0  0  0
  4  8  1  0  0  0
  5  6  1  0  0  0
  5  7  1  0  0  0
  6  9  1  0  0  0
  7 10  1  0  0  0
 10 11  1  0  0  0
 10 20  1  0  0  0
 11 12  2  0  0  0
 12 13  2  0  0  0
 13 14  1  0  0  0
 13 20  2  0  0  0
 14 15  2  0  0  0
 14 16  1  0  0  0
 16 17  1  0  0  0
 16 21  1  0  0  0
 17 18  1  0  0  0
 17 19  2  0  0  0
 18 22  1  0  0  0
 18 23  1  0  0  0
 19 20  2  0  0  0
M  END
> <minimizedAffinity>
-9.78324

$$$$
GDP


 36 38  0  0  0  0  0  0  0  0999 V2000
   -5.0896  -23.7968  -25.2430 C   0  0  0  0  0  0  0  0  0  0  0  0
   -4.3971  -22.8981  -26.0588 O   0  0  0  0  0  0  0  0  0  0  0  0
   -6.5017  -23.2857  -25.4372 C   0  0  0  0  0  0  0  0  0  0  0  0
   -7.4069  -23.8701  -24.5749 O   0  0  0  0  0  0  0  0  0  0  0  0
   -6.2497  -21.8240  -25.1126 C   0  0  0  0  0  0  0  0  0  0  0  0
   -6.0442  -21.6489  -23.7650 O   0  0  0  0  0  0  0  0  0  0  0  0
   -4.9156  -21.6477  -25.8233 C   0  0  0  0  0  0  0  0  0  0  0  0
   -8.1892  -24.1553  -25.1135 H   0  0  0  0  0  0  0  0  0  0  0  0
   -5.0680  -21.5308  -23.5477 H   0  0  0  0  0  0  0  0  0  0  0  0
   -5.1972  -20.9100  -27.0444 N   0  0  0  0  0  0  0  0  0  0  0  0
   -5.6460  -19.6511  -27.1916 C   0  0  0  0  0  0  0  0  0  0  0  0
   -5.7620  -19.3854  -28.5186 N   0  0  0  0  0  0  0  0  0  0  0  0
   -5.3836  -20.4837  -29.1993 C   0  0  0  0  0  0  0  0  0  0  0  0
   -5.2780  -20.8427  -30.5268 C   0  0  0  0  0  0  0  0  0  0  0  0
   -5.5945  -19.9914  -31.4200 O   0  0  0  0  0  0  0  0  0  0  0  0
   -4.8509  -22.0650  -30.9133 N   0  0  0  0  0  0  0  0  0  0  0  0
   -4.5093  -22.9861  -29.9989 C   0  0  0  0  0  0  0  0  0  0  0  0
   -4.0504  -24.2960  -30.3512 N   0  0  0  0  0  0  0  0  0  0  0  0
   -4.6035  -22.6600  -28.6892 N   0  0  0  0  0  0  0  0  0  0  0  0
   -5.0262  -21.4484  -28.2660 C   0  0  0  0  0  0  0  0  0  0  0  0
   -4.7700  -22.3396  -31.9269 H   0  0  0  0  0  0  0  0  0  0  0  0
   -4.2243  -25.0871  -29.6725 H   0  0  0  0  0  0  0  0  0  0  0  0
   -3.5495  -24.4854  -31.2616 H   0  0  0  0  0  0  0  0  0  0  0  0
   -4.9123  -25.2116  -25.6588 C   0  0  0  0  0  0  0  0  0  0  0  0
   -5.8349  -25.5153  -26.6577 O   0  0  0  0  0  0  0  0  0  0  0  0
   -6.2247  -27.1369  -26.7551 P   0  0  0  0  0  0  0  0  0  0  0  0
   -7.4616  -27.2968  -27.6330 O   0  0  0  0  0  0  0  0  0  0  0  0
   -6.6665  -27.7417  -25.2170 O   0  0  0  0  0  0  0  0  0  0  0  0
   -6.9020  -26.9440  -24.6544 H   0  0  0  0  0  0  0  0  0  0  0  0
   -4.9685  -28.0851  -27.3273 O   0  0  0  0  0  0  0  0  0  0  0  0
   -4.3746  -27.4219  -28.7583 P   0  0  0  0  0  0  0  0  0  0  0  0
   -3.2339  -26.4768  -28.4497 O   0  0  0  0  0  0  0  0  0  0  0  0
   -3.8616  -28.6767  -29.7593 O   0  0  0  0  0  0  0  0  0  0  0  0
   -5.6316  -26.5357  -29.4737 O   0  0  0  0  0  0  0  0  0  0  0  0
   -4.1677  -28.4963  -30.6834 H   0  0  0  0  0  0  0  0  0  0  0  0
   -6.4665  -27.0638  -29.3039 H   0  0  0  0  0  0  0  0  0  0  0  0
 31 32  2  0  0  0
 31 33  1  0  0  0
 31 34  1  0  0  0
 31 30  1  0  0  0
 33 35  1  0  0  0
 34 36  1  0  0  0
 26 30  1  0  0  0
 26 27  2  0  0  0
 26 28  1  0  0  0
 26 25  1  0  0  0
 28 29  1  0  0  0
 25 24  1  0  0  0
 24  1  1  0  0  0
  1  2  1  0  0  0
  1  3  1  0  0  0
  2  7  1  0  0  0
  3  4  1  0  0  0
  3  5  1  0  0  0
  4  8  1  0  0  0
  5  6  1  0  0  0
  5  7  1  0  0  0
  6  9  1  0  0  0
  7 10  1  0  0  0
 10 11  1  0  0  0
 10 20  1  0  0  0
 11 12  2  0  0  0
 12 13  2  0  0  0
 13 14  1  0  0  0
 13 20  2  0  0  0
 14 15  2  0  0  0
 14 16  1  0  0  0
 16 17  1  0  0  0
 16 21  1  0  0  0
 17 18  1  0  0  0
 17 19  2  0  0  0
 18 22  1  0  0  0
 18 23  1  0  0  0
 19 20  2  0  0  0
M  END
> <minimizedAffinity>
-9.72654

$$$$
GDP


 36 38  0  0  0  0  0  0  0  0999 V2000
   -6.3889  -25.9061  -25.0499 C   0  0  0  0  0  0  0  0  0  0  0  0
   -5.9222  -25.0151  -26.0199 O   0  0  0  0  0  0  0  0  0  0  0  0
   -6.7620  -24.9258  -23.9577 C   0  0  0  0  0  0  0  0  0  0  0  0
   -7.0767  -25.5455  -22.7654 O   0  0  0  0  0  0  0  0  0  0  0  0
   -5.4486  -24.1669  -23.8897 C   0  0  0  0  0  0  0  0  0  0  0  0
   -4.4716  -24.9291  -23.2952 O   0  0  0  0  0  0  0  0  0  0  0  0
   -5.1444  -24.0816  -25.3783 C   0  0  0  0  0  0  0  0  0  0  0  0
   -7.9240  -25.1478  -22.4381 H   0  0  0  0  0  0  0  0  0  0  0  0
   -3.8380  -25.3203  -23.9733 H   0  0  0  0  0  0  0  0  0  0  0  0
   -5.4468  -22.7171  -25.7800 N   0  0  0  0  0  0  0  0  0  0  0  0
   -5.8212  -21.6719  -25.0214 C   0  0  0  0  0  0  0  0  0  0  0  0
   -5.9951  -20.5926  -25.8276 N   0  0  0  0  0  0  0  0  0  0  0  0
   -5.7278  -20.9683  -27.0925 C   0  0  0  0  0  0  0  0  0  0  0  0
   -5.7213  -20.3589  -28.3298 C   0  0  0  0  0  0  0  0  0  0  0  0
   -6.0326  -19.1262  -28.4086 O   0  0  0  0  0  0  0  0  0  0  0  0
   -5.3966  -21.0229  -29.4609 N   0  0  0  0  0  0  0  0  0  0  0  0
   -5.0637  -22.3222  -29.4145 C   0  0  0  0  0  0  0  0  0  0  0  0
   -4.7111  -23.0749  -30.5806 N   0  0  0  0  0  0  0  0  0  0  0  0
   -5.0619  -22.9446  -28.2132 N   0  0  0  0  0  0  0  0  0  0  0  0
   -5.3808  -22.3130  -27.0621 C   0  0  0  0  0  0  0  0  0  0  0  0
   -5.3915  -20.5580  -30.4061 H   0  0  0  0  0  0  0  0  0  0  0  0
   -4.8967  -24.1152  -30.5805 H   0  0  0  0  0  0  0  0  0  0  0  0
   -4.2760  -22.6190  -31.4282 H   0  0  0  0  0  0  0  0  0  0  0  0
   -7.5332  -26.7277  -25.5207 C   0  0  0  0  0  0  0  0  0  0  0  0
   -7.1001  -28.0333  -25.7426 O   0  0  0  0  0  0  0  0  0  0  0  0
   -7.2075  -28.5254  -27.3354 P   0  0  0  0  0  0  0  0  0  0  0  0
   -8.6396  -28.9645  -27.6225 O   0  0  0  0  0  0  0  0  0  0  0  0
   -6.2361  -29.9080  -27.6034 O   0  0  0  0  0  0  0  0  0  0  0  0
   -6.0623  -30.3130  -26.7012 H   0  0  0  0  0  0  0  0  0  0  0  0
   -6.7215  -27.3496  -28.4243 O   0  0  0  0  0  0  0  0  0  0  0  0
   -5.0378  -27.3017  -28.4806 P   0  0  0  0  0  0  0  0  0  0  0  0
   -4.5331  -28.2664  -29.5315 O   0  0  0  0  0  0  0  0  0  0  0  0
   -4.5569  -25.7252  -28.8314 O   0  0  0  0  0  0  0  0  0  0  0  0
   -4.4592  -27.8014  -26.9664 O   0  0  0  0  0  0  0  0  0  0  0  0
   -3.7958  -25.4836  -28.2462 H   0  0  0  0  0  0  0  0  0  0  0  0
   -5.0945  -27.4169  -26.2931 H   0  0  0  0  0  0  0  0  0  0  0  0
 31 32  2  0  0  0
 31 33  1  0  0  0
 31 34  1  0  0  0
 31 30  1  0  0  0
 33 35  1  0  0  0
 34 36  1  0  0  0
 26 30  1  0  0  0
 26 27  2  0  0  0
 26 28  1  0  0  0
 26 25  1  0  0  0
 28 29  1  0  0  0
 25 24  1  0  0  0
 24  1  1  0  0  0
  1  2  1  0  0  0
  1  3  1  0  0  0
  2  7  1  0  0  0
  3  4  1  0  0  0
  3  5  1  0  0  0
  4  8  1  0  0  0
  5  6  1  0  0  0
  5  7  1  0  0  0
  6  9  1  0  0  0
  7 10  1  0  0  0
 10 11  1  0  0  0
 10 20  1  0  0  0
 11 12  2  0  0  0
 12 13  2  0  0  0
 13 14  1  0  0  0
 13 20  2  0  0  0
 14 15  2  0  0  0
 14 16  1  0  0  0
 16 17  1  0  0  0
 16 21  1  0  0  0
 17 18  1  0  0  0
 17 19  2  0  0  0
 18 22  1  0  0  0
 18 23  1  0  0  0
 19 20  2  0  0  0
M  END
> <minimizedAffinity>
-9.69253

$$$$
GDP


 36 38  0  0  0  0  0  0  0  0999 V2000
   -5.4760  -24.0755  -24.0950 C   0  0  0  0  0  0  0  0  0  0  0  0
   -6.0655  -24.4747  -25.2975 O   0  0  0  0  0  0  0  0  0  0  0  0
   -5.2518  -25.4299  -23.4558 C   0  0  0  0  0  0  0  0  0  0  0  0
   -4.8528  -25.3414  -22.1377 O   0  0  0  0  0  0  0  0  0  0  0  0
   -6.6618  -25.9742  -23.6012 C   0  0  0  0  0  0  0  0  0  0  0  0
   -7.5187  -25.3589  -22.7203 O   0  0  0  0  0  0  0  0  0  0  0  0
   -6.9722  -25.4636  -25.0008 C   0  0  0  0  0  0  0  0  0  0  0  0
   -4.0731  -25.9430  -22.0220 H   0  0  0  0  0  0  0  0  0  0  0  0
   -8.0872  -24.6634  -23.1755 H   0  0  0  0  0  0  0  0  0  0  0  0
   -6.8707  -26.6121  -25.8869 N   0  0  0  0  0  0  0  0  0  0  0  0
   -5.8211  -27.0335  -26.6140 C   0  0  0  0  0  0  0  0  0  0  0  0
   -6.1861  -28.1519  -27.2929 N   0  0  0  0  0  0  0  0  0  0  0  0
   -7.4680  -28.4270  -26.9867 C   0  0  0  0  0  0  0  0  0  0  0  0
   -8.3871  -29.3947  -27.3345 C   0  0  0  0  0  0  0  0  0  0  0  0
   -8.0365  -30.3102  -28.1480 O   0  0  0  0  0  0  0  0  0  0  0  0
   -9.6458  -29.4062  -26.8433 N   0  0  0  0  0  0  0  0  0  0  0  0
  -10.0487  -28.4570  -25.9843 C   0  0  0  0  0  0  0  0  0  0  0  0
  -11.3697  -28.4200  -25.4326 N   0  0  0  0  0  0  0  0  0  0  0  0
   -9.1669  -27.4954  -25.6261 N   0  0  0  0  0  0  0  0  0  0  0  0
   -7.9010  -27.4523  -26.0968 C   0  0  0  0  0  0  0  0  0  0  0  0
  -10.3480  -30.1450  -27.1086 H   0  0  0  0  0  0  0  0  0  0  0  0
  -11.7706  -27.4826  -25.1549 H   0  0  0  0  0  0  0  0  0  0  0  0
  -11.9432  -29.2969  -25.2994 H   0  0  0  0  0  0  0  0  0  0  0  0
   -4.2233  -23.3023  -24.2926 C   0  0  0  0  0  0  0  0  0  0  0  0
   -4.5430  -21.9803  -24.5950 O   0  0  0  0  0  0  0  0  0  0  0  0
   -3.5367  -21.2781  -25.7286 P   0  0  0  0  0  0  0  0  0  0  0  0
   -2.2708  -22.1192  -25.8556 O   0  0  0  0  0  0  0  0  0  0  0  0
   -3.0179  -19.7366  -25.1980 O   0  0  0  0  0  0  0  0  0  0  0  0
   -3.1637  -19.7135  -24.2047 H   0  0  0  0  0  0  0  0  0  0  0  0
   -4.2642  -21.0775  -27.2236 O   0  0  0  0  0  0  0  0  0  0  0  0
   -5.8729  -20.6249  -27.0062 P   0  0  0  0  0  0  0  0  0  0  0  0
   -6.3207  -19.7558  -28.1610 O   0  0  0  0  0  0  0  0  0  0  0  0
   -6.8138  -22.0192  -26.9031 O   0  0  0  0  0  0  0  0  0  0  0  0
   -5.9612  -19.7134  -25.5783 O   0  0  0  0  0  0  0  0  0  0  0  0
   -7.4675  -21.9121  -26.1674 H   0  0  0  0  0  0  0  0  0  0  0  0
   -5.3195  -20.1455  -24.9408 H   0  0  0  0  0  0  0  0  0  0  0  0
 31 32  2  0  0  0
 31 33  1  0  0  0
 31 34  1  0  0  0
 31 30  1  0  0  0
 33 35  1  0  0  0
 34 36  1  0  0  0
 26 30  1  0  0  0
 26 27  2  0  0  0
 26 28  1  0  0  0
 26 25  1  0  0  0
 28 29  1  0  0  0
 25 24  1  0  0  0
 24  1  1  0  0  0
  1  2  1  0  0  0
  1  3  1  0  0  0
  2  7  1  0  0  0
  3  4  1  0  0  0
  3  5  1  0  0  0
  4  8  1  0  0  0
  5  6  1  0  0  0
  5  7  1  0  0  0
  6  9  1  0  0  0
  7 10  1  0  0  0
 10 11  1  0  0  0
 10 20  1  0  0  0
 11 12  2  0  0  0
 12 13  2  0  0  0
 13 14  1  0  0  0
 13 20  2  0  0  0
 14 15  2  0  0  0
 14 16  1  0  0  0
 16 17  1  0  0  0
 16 21  1  0  0  0
 17 18  1  0  0  0
 17 19  2  0  0  0
 18 22  1  0  0  0
 18 23  1  0  0  0
 19 20  2  0  0  0
M  END
> <minimizedAffinity>
-9.63592

$$$$
GDP


 36 38  0  0  0  0  0  0  0  0999 V2000
   -7.2549  -26.7812  -24.0431 C   0  0  0  0  0  0  0  0  0  0  0  0
   -5.8591  -26.8416  -24.0146 O   0  0  0  0  0  0  0  0  0  0  0  0
   -7.4550  -25.3079  -23.7557 C   0  0  0  0  0  0  0  0  0  0  0  0
   -8.7751  -24.9819  -23.5197 O   0  0  0  0  0  0  0  0  0  0  0  0
   -6.6001  -25.2131  -22.5044 C   0  0  0  0  0  0  0  0  0  0  0  0
   -7.2210  -25.8193  -21.4387 O   0  0  0  0  0  0  0  0  0  0  0  0
   -5.4385  -26.0941  -22.9411 C   0  0  0  0  0  0  0  0  0  0  0  0
   -8.9861  -24.1821  -24.0664 H   0  0  0  0  0  0  0  0  0  0  0  0
   -6.8309  -26.7274  -21.2455 H   0  0  0  0  0  0  0  0  0  0  0  0
   -4.3439  -25.1947  -23.2689 N   0  0  0  0  0  0  0  0  0  0  0  0
   -3.7708  -24.9538  -24.4612 C   0  0  0  0  0  0  0  0  0  0  0  0
   -2.7833  -24.0372  -24.2893 N   0  0  0  0  0  0  0  0  0  0  0  0
   -2.7422  -23.7067  -22.9848 C   0  0  0  0  0  0  0  0  0  0  0  0
   -1.9899  -22.8605  -22.1972 C   0  0  0  0  0  0  0  0  0  0  0  0
   -1.0717  -22.1673  -22.7442 O   0  0  0  0  0  0  0  0  0  0  0  0
   -2.1923  -22.7406  -20.8666 N   0  0  0  0  0  0  0  0  0  0  0  0
   -3.1510  -23.4559  -20.2579 C   0  0  0  0  0  0  0  0  0  0  0  0
   -3.4094  -23.3688  -18.8521 N   0  0  0  0  0  0  0  0  0  0  0  0
   -3.9039  -24.2940  -21.0072 N   0  0  0  0  0  0  0  0  0  0  0  0
   -3.7301  -24.4395  -22.3392 C   0  0  0  0  0  0  0  0  0  0  0  0
   -1.6182  -22.0945  -20.2648 H   0  0  0  0  0  0  0  0  0  0  0  0
   -3.8143  -24.2140  -18.3639 H   0  0  0  0  0  0  0  0  0  0  0  0
   -3.2068  -22.4908  -18.3011 H   0  0  0  0  0  0  0  0  0  0  0  0
   -7.8268  -27.2108  -25.3448 C   0  0  0  0  0  0  0  0  0  0  0  0
   -7.3064  -28.4575  -25.6855 O   0  0  0  0  0  0  0  0  0  0  0  0
   -7.3358  -28.7837  -27.3237 P   0  0  0  0  0  0  0  0  0  0  0  0
   -8.7184  -29.3064  -27.6996 O   0  0  0  0  0  0  0  0  0  0  0  0
   -6.2441  -30.0447  -27.7046 O   0  0  0  0  0  0  0  0  0  0  0  0
   -6.0564  -30.5280  -26.8447 H   0  0  0  0  0  0  0  0  0  0  0  0
   -6.9280  -27.4621  -28.2678 O   0  0  0  0  0  0  0  0  0  0  0  0
   -5.2508  -27.3029  -28.3119 P   0  0  0  0  0  0  0  0  0  0  0  0
   -4.8807  -25.8702  -28.6282 O   0  0  0  0  0  0  0  0  0  0  0  0
   -4.6277  -27.7686  -26.8170 O   0  0  0  0  0  0  0  0  0  0  0  0
   -4.6734  -28.2977  -29.5587 O   0  0  0  0  0  0  0  0  0  0  0  0
   -3.8268  -28.3317  -26.9640 H   0  0  0  0  0  0  0  0  0  0  0  0
   -5.2440  -29.1214  -29.5344 H   0  0  0  0  0  0  0  0  0  0  0  0
 31 32  2  0  0  0
 31 33  1  0  0  0
 31 34  1  0  0  0
 31 30  1  0  0  0
 33 35  1  0  0  0
 34 36  1  0  0  0
 26 30  1  0  0  0
 26 27  2  0  0  0
 26 28  1  0  0  0
 26 25  1  0  0  0
 28 29  1  0  0  0
 25 24  1  0  0  0
 24  1  1  0  0  0
  1  2  1  0  0  0
  1  3  1  0  0  0
  2  7  1  0  0  0
  3  4  1  0  0  0
  3  5  1  0  0  0
  4  8  1  0  0  0
  5  6  1  0  0  0
  5  7  1  0  0  0
  6  9  1  0  0  0
  7 10  1  0  0  0
 10 11  1  0  0  0
 10 20  1  0  0  0
 11 12  2  0  0  0
 12 13  2  0  0  0
 13 14  1  0  0  0
 13 20  2  0  0  0
 14 15  2  0  0  0
 14 16  1  0  0  0
 16 17  1  0  0  0
 16 21  1  0  0  0
 17 18  1  0  0  0
 17 19  2  0  0  0
 18 22  1  0  0  0
 18 23  1  0  0  0
 19 20  2  0  0  0
M  END
> <minimizedAffinity>
-9.63192

$$$$
GDP


 36 38  0  0  0  0  0  0  0  0999 V2000
   -6.0526  -25.5661  -24.4455 C   0  0  0  0  0  0  0  0  0  0  0  0
   -7.3365  -26.1167  -24.4104 O   0  0  0  0  0  0  0  0  0  0  0  0
   -5.3212  -26.5617  -23.5697 C   0  0  0  0  0  0  0  0  0  0  0  0
   -4.0409  -26.1568  -23.2514 O   0  0  0  0  0  0  0  0  0  0  0  0
   -6.2564  -26.5265  -22.3740 C   0  0  0  0  0  0  0  0  0  0  0  0
   -6.1193  -25.3493  -21.6782 O   0  0  0  0  0  0  0  0  0  0  0  0
   -7.5868  -26.4899  -23.1119 C   0  0  0  0  0  0  0  0  0  0  0  0
   -3.4364  -26.9255  -23.4157 H   0  0  0  0  0  0  0  0  0  0  0  0
   -6.8707  -24.7084  -21.8756 H   0  0  0  0  0  0  0  0  0  0  0  0
   -8.1515  -27.8256  -23.0034 N   0  0  0  0  0  0  0  0  0  0  0  0
   -8.0633  -28.7050  -21.9900 C   0  0  0  0  0  0  0  0  0  0  0  0
   -8.7485  -29.8273  -22.3304 N   0  0  0  0  0  0  0  0  0  0  0  0
   -9.2648  -29.6450  -23.5603 C   0  0  0  0  0  0  0  0  0  0  0  0
  -10.0337  -30.3841  -24.4349 C   0  0  0  0  0  0  0  0  0  0  0  0
  -10.4052  -31.5525  -24.0890 O   0  0  0  0  0  0  0  0  0  0  0  0
  -10.4068  -29.9130  -25.6451 N   0  0  0  0  0  0  0  0  0  0  0  0
  -10.0332  -28.6865  -26.0416 C   0  0  0  0  0  0  0  0  0  0  0  0
  -10.3996  -28.1367  -27.3121 N   0  0  0  0  0  0  0  0  0  0  0  0
   -9.2784  -27.9399  -25.2028 N   0  0  0  0  0  0  0  0  0  0  0  0
   -8.8868  -28.3779  -23.9861 C   0  0  0  0  0  0  0  0  0  0  0  0
  -10.9941  -30.4770  -26.3133 H   0  0  0  0  0  0  0  0  0  0  0  0
   -9.7567  -27.4236  -27.7535 H   0  0  0  0  0  0  0  0  0  0  0  0
  -11.2854  -28.4247  -27.8100 H   0  0  0  0  0  0  0  0  0  0  0  0
   -5.4996  -25.4730  -25.8209 C   0  0  0  0  0  0  0  0  0  0  0  0
   -4.9334  -26.6968  -26.1715 O   0  0  0  0  0  0  0  0  0  0  0  0
   -5.5849  -27.3790  -27.5503 P   0  0  0  0  0  0  0  0  0  0  0  0
   -5.2569  -26.4898  -28.7452 O   0  0  0  0  0  0  0  0  0  0  0  0
   -7.2926  -27.4142  -27.4534 O   0  0  0  0  0  0  0  0  0  0  0  0
   -7.5517  -26.7455  -26.7505 H   0  0  0  0  0  0  0  0  0  0  0  0
   -5.0634  -28.9472  -27.8212 O   0  0  0  0  0  0  0  0  0  0  0  0
   -3.5004  -28.9155  -28.4506 P   0  0  0  0  0  0  0  0  0  0  0  0
   -2.8192  -30.2426  -28.1965 O   0  0  0  0  0  0  0  0  0  0  0  0
   -3.5930  -28.5939  -30.1022 O   0  0  0  0  0  0  0  0  0  0  0  0
   -2.6420  -27.7026  -27.6324 O   0  0  0  0  0  0  0  0  0  0  0  0
   -2.8961  -27.9323  -30.3403 H   0  0  0  0  0  0  0  0  0  0  0  0
   -3.2964  -26.9568  -27.4895 H   0  0  0  0  0  0  0  0  0  0  0  0
 31 32  2  0  0  0
 31 33  1  0  0  0
 31 34  1  0  0  0
 31 30  1  0  0  0
 33 35  1  0  0  0
 34 36  1  0  0  0
 26 30  1  0  0  0
 26 27  2  0  0  0
 26 28  1  0  0  0
 26 25  1  0  0  0
 28 29  1  0  0  0
 25 24  1  0  0  0
 24  1  1  0  0  0
  1  2  1  0  0  0
  1  3  1  0  0  0
  2  7  1  0  0  0
  3  4  1  0  0  0
  3  5  1  0  0  0
  4  8  1  0  0  0
  5  6  1  0  0  0
  5  7  1  0  0  0
  6  9  1  0  0  0
  7 10  1  0  0  0
 10 11  1  0  0  0
 10 20  1  0  0  0
 11 12  2  0  0  0
 12 13  2  0  0  0
 13 14  1  0  0  0
 13 20  2  0  0  0
 14 15  2  0  0  0
 14 16  1  0  0  0
 16 17  1  0  0  0
 16 21  1  0  0  0
 17 18  1  0  0  0
 17 19  2  0  0  0
 18 22  1  0  0  0
 18 23  1  0  0  0
 19 20  2  0  0  0
M  END
> <minimizedAffinity>
-9.57765

$$$$
GDP


 36 38  0  0  0  0  0  0  0  0999 V2000
   -3.8430  -24.4141  -30.8211 C   0  0  0  0  0  0  0  0  0  0  0  0
   -4.4228  -23.7129  -29.7605 O   0  0  0  0  0  0  0  0  0  0  0  0
   -3.1335  -23.2764  -31.5250 C   0  0  0  0  0  0  0  0  0  0  0  0
   -2.6228  -23.6415  -32.7540 O   0  0  0  0  0  0  0  0  0  0  0  0
   -4.3122  -22.3267  -31.6440 C   0  0  0  0  0  0  0  0  0  0  0  0
   -5.2025  -22.7660  -32.5943 O   0  0  0  0  0  0  0  0  0  0  0  0
   -4.9350  -22.5453  -30.2727 C   0  0  0  0  0  0  0  0  0  0  0  0
   -1.6871  -23.3160  -32.7957 H   0  0  0  0  0  0  0  0  0  0  0  0
   -6.0099  -23.2008  -32.1780 H   0  0  0  0  0  0  0  0  0  0  0  0
   -4.5924  -21.3773  -29.4771 N   0  0  0  0  0  0  0  0  0  0  0  0
   -3.7972  -20.3395  -29.7911 C   0  0  0  0  0  0  0  0  0  0  0  0
   -3.7703  -19.4812  -28.7387 N   0  0  0  0  0  0  0  0  0  0  0  0
   -4.5521  -19.9873  -27.7664 C   0  0  0  0  0  0  0  0  0  0  0  0
   -4.9278  -19.6076  -26.4949 C   0  0  0  0  0  0  0  0  0  0  0  0
   -4.4764  -18.5142  -26.0221 O   0  0  0  0  0  0  0  0  0  0  0  0
   -5.7575  -20.3540  -25.7331 N   0  0  0  0  0  0  0  0  0  0  0  0
   -6.2516  -21.5113  -26.1997 C   0  0  0  0  0  0  0  0  0  0  0  0
   -7.1341  -22.3418  -25.4367 N   0  0  0  0  0  0  0  0  0  0  0  0
   -5.8990  -21.9075  -27.4444 N   0  0  0  0  0  0  0  0  0  0  0  0
   -5.0723  -21.1874  -28.2341 C   0  0  0  0  0  0  0  0  0  0  0  0
   -6.0448  -20.0645  -24.7620 H   0  0  0  0  0  0  0  0  0  0  0  0
   -7.1313  -23.3816  -25.6250 H   0  0  0  0  0  0  0  0  0  0  0  0
   -7.7781  -21.9430  -24.7006 H   0  0  0  0  0  0  0  0  0  0  0  0
   -2.9256  -25.4918  -30.3702 C   0  0  0  0  0  0  0  0  0  0  0  0
   -3.2519  -25.8561  -29.0655 O   0  0  0  0  0  0  0  0  0  0  0  0
   -4.3665  -27.0962  -28.9627 P   0  0  0  0  0  0  0  0  0  0  0  0
   -3.9553  -28.2119  -29.9179 O   0  0  0  0  0  0  0  0  0  0  0  0
   -5.9028  -26.5687  -29.5000 O   0  0  0  0  0  0  0  0  0  0  0  0
   -5.7442  -25.7436  -30.0498 H   0  0  0  0  0  0  0  0  0  0  0  0
   -4.5531  -27.6895  -27.4079 O   0  0  0  0  0  0  0  0  0  0  0  0
   -5.4961  -26.6192  -26.5106 P   0  0  0  0  0  0  0  0  0  0  0  0
   -6.9621  -26.8750  -26.7845 O   0  0  0  0  0  0  0  0  0  0  0  0
   -5.1437  -26.8330  -24.8766 O   0  0  0  0  0  0  0  0  0  0  0  0
   -5.1172  -25.0473  -27.0235 O   0  0  0  0  0  0  0  0  0  0  0  0
   -5.0627  -25.9450  -24.4464 H   0  0  0  0  0  0  0  0  0  0  0  0
   -4.1300  -25.0494  -27.1973 H   0  0  0  0  0  0  0  0  0  0  0  0
 31 32  2  0  0  0
 31 33  1  0  0  0
 31 34  1  0  0  0
 31 30  1  0  0  0
 33 35  1  0  0  0
 34 36  1  0  0  0
 26 30  1  0  0  0
 26 27  2  0  0  0
 26 28  1  0  0  0
 26 25  1  0  0  0
 28 29  1  0  0  0
 25 24  1  0  0  0
 24  1  1  0  0  0
  1  2  1  0  0  0
  1  3  1  0  0  0
  2  7  1  0  0  0
  3  4  1  0  0  0
  3  5  1  0  0  0
  4  8  1  0  0  0
  5  6  1  0  0  0
  5  7  1  0  0  0
  6  9  1  0  0  0
  7 10  1  0  0  0
 10 11  1  0  0  0
 10 20  1  0  0  0
 11 12  2  0  0  0
 12 13  2  0  0  0
 13 14  1  0  0  0
 13 20  2  0  0  0
 14 15  2  0  0  0
 14 16  1  0  0  0
 16 17  1  0  0  0
 16 21  1  0  0  0
 17 18  1  0  0  0
 17 19  2  0  0  0
 18 22  1  0  0  0
 18 23  1  0  0  0
 19 20  2  0  0  0
M  END
> <minimizedAffinity>
-9.53076

$$$$
GDP


 36 38  0  0  0  0  0  0  0  0999 V2000
   -4.5951  -25.1775  -26.4912 C   0  0  0  0  0  0  0  0  0  0  0  0
   -5.6168  -25.6980  -27.2389 O   0  0  0  0  0  0  0  0  0  0  0  0
   -5.0049  -25.2873  -25.0291 C   0  0  0  0  0  0  0  0  0  0  0  0
   -5.8527  -24.2042  -24.7851 O   0  0  0  0  0  0  0  0  0  0  0  0
   -5.8081  -26.5722  -25.0850 C   0  0  0  0  0  0  0  0  0  0  0  0
   -6.7403  -26.6418  -24.0553 O   0  0  0  0  0  0  0  0  0  0  0  0
   -6.4567  -26.4157  -26.4349 C   0  0  0  0  0  0  0  0  0  0  0  0
   -5.9105  -23.5675  -25.5421 H   0  0  0  0  0  0  0  0  0  0  0  0
   -6.2676  -26.2933  -23.2337 H   0  0  0  0  0  0  0  0  0  0  0  0
   -6.7743  -27.7080  -27.0101 N   0  0  0  0  0  0  0  0  0  0  0  0
   -5.9953  -28.4625  -27.8166 C   0  0  0  0  0  0  0  0  0  0  0  0
   -6.6574  -29.5936  -28.1327 N   0  0  0  0  0  0  0  0  0  0  0  0
   -7.8621  -29.5486  -27.5194 C   0  0  0  0  0  0  0  0  0  0  0  0
   -8.9545  -30.4011  -27.4681 C   0  0  0  0  0  0  0  0  0  0  0  0
   -8.8938  -31.4986  -28.1180 O   0  0  0  0  0  0  0  0  0  0  0  0
  -10.0538  -30.0715  -26.7455 N   0  0  0  0  0  0  0  0  0  0  0  0
  -10.1243  -28.9169  -26.0586 C   0  0  0  0  0  0  0  0  0  0  0  0
  -11.2874  -28.5736  -25.2971 N   0  0  0  0  0  0  0  0  0  0  0  0
   -9.0679  -28.0729  -26.0971 N   0  0  0  0  0  0  0  0  0  0  0  0
   -7.9442  -28.3677  -26.8120 C   0  0  0  0  0  0  0  0  0  0  0  0
  -10.8754  -30.7341  -26.7190 H   0  0  0  0  0  0  0  0  0  0  0  0
  -12.2214  -28.4813  -25.7850 H   0  0  0  0  0  0  0  0  0  0  0  0
  -11.1949  -28.4193  -24.2692 H   0  0  0  0  0  0  0  0  0  0  0  0
   -3.3798  -26.0838  -26.7299 C   0  0  0  0  0  0  0  0  0  0  0  0
   -2.9959  -26.0442  -28.0447 O   0  0  0  0  0  0  0  0  0  0  0  0
   -1.4612  -26.6238  -28.3637 P   0  0  0  0  0  0  0  0  0  0  0  0
   -0.3877  -25.8877  -27.6021 O   0  0  0  0  0  0  0  0  0  0  0  0
   -1.0633  -26.6372  -29.9950 O   0  0  0  0  0  0  0  0  0  0  0  0
   -0.1007  -26.3735  -30.1307 H   0  0  0  0  0  0  0  0  0  0  0  0
   -1.3973  -28.2414  -27.8081 O   0  0  0  0  0  0  0  0  0  0  0  0
   -1.8433  -29.2644  -29.0541 P   0  0  0  0  0  0  0  0  0  0  0  0
   -2.3204  -30.6195  -28.5616 O   0  0  0  0  0  0  0  0  0  0  0  0
   -0.4832  -29.4985  -30.0478 O   0  0  0  0  0  0  0  0  0  0  0  0
   -3.1374  -28.6005  -29.9190 O   0  0  0  0  0  0  0  0  0  0  0  0
   -0.4251  -28.7083  -30.6332 H   0  0  0  0  0  0  0  0  0  0  0  0
   -2.8873  -28.2070  -30.7740 H   0  0  0  0  0  0  0  0  0  0  0  0
 31 32  2  0  0  0
 31 33  1  0  0  0
 31 34  1  0  0  0
 31 30  1  0  0  0
 33 35  1  0  0  0
 34 36  1  0  0  0
 26 30  1  0  0  0
 26 27  2  0  0  0
 26 28  1  0  0  0
 26 25  1  0  0  0
 28 29  1  0  0  0
 25 24  1  0  0  0
 24  1  1  0  0  0
  1  2  1  0  0  0
  1  3  1  0  0  0
  2  7  1  0  0  0
  3  4  1  0  0  0
  3  5  1  0  0  0
  4  8  1  0  0  0
  5  6  1  0  0  0
  5  7  1  0  0  0
  6  9  1  0  0  0
  7 10  1  0  0  0
 10 11  1  0  0  0
 10 20  1  0  0  0
 11 12  2  0  0  0
 12 13  2  0  0  0
 13 14  1  0  0  0
 13 20  2  0  0  0
 14 15  2  0  0  0
 14 16  1  0  0  0
 16 17  1  0  0  0
 16 21  1  0  0  0
 17 18  1  0  0  0
 17 19  2  0  0  0
 18 22  1  0  0  0
 18 23  1  0  0  0
 19 20  2  0  0  0
M  END
> <minimizedAffinity>
-10.20248

$$$$
GDP


 36 38  0  0  0  0  0  0  0  0999 V2000
   -5.7945  -23.3074  -25.2553 C   0  0  0  0  0  0  0  0  0  0  0  0
   -6.6252  -24.3573  -25.5405 O   0  0  0  0  0  0  0  0  0  0  0  0
   -4.8855  -23.7480  -24.1163 C   0  0  0  0  0  0  0  0  0  0  0  0
   -5.6315  -23.5901  -22.9459 O   0  0  0  0  0  0  0  0  0  0  0  0
   -4.7521  -25.2209  -24.4515 C   0  0  0  0  0  0  0  0  0  0  0  0
   -4.4436  -25.9788  -23.3270 O   0  0  0  0  0  0  0  0  0  0  0  0
   -6.1401  -25.4979  -24.9655 C   0  0  0  0  0  0  0  0  0  0  0  0
   -6.5031  -23.1412  -23.0889 H   0  0  0  0  0  0  0  0  0  0  0  0
   -3.7607  -25.4410  -22.8130 H   0  0  0  0  0  0  0  0  0  0  0  0
   -6.1352  -26.6077  -25.8984 N   0  0  0  0  0  0  0  0  0  0  0  0
   -5.0843  -27.0870  -26.6001 C   0  0  0  0  0  0  0  0  0  0  0  0
   -5.4975  -28.1254  -27.3541 N   0  0  0  0  0  0  0  0  0  0  0  0
   -6.8189  -28.2994  -27.1237 C   0  0  0  0  0  0  0  0  0  0  0  0
   -7.7751  -29.1859  -27.5954 C   0  0  0  0  0  0  0  0  0  0  0  0
   -7.4120  -30.0705  -28.4415 O   0  0  0  0  0  0  0  0  0  0  0  0
   -9.0590  -29.1092  -27.1652 N   0  0  0  0  0  0  0  0  0  0  0  0
   -9.4484  -28.1797  -26.2740 C   0  0  0  0  0  0  0  0  0  0  0  0
  -10.8053  -28.1031  -25.8231 N   0  0  0  0  0  0  0  0  0  0  0  0
   -8.5290  -27.3064  -25.8029 N   0  0  0  0  0  0  0  0  0  0  0  0
   -7.2279  -27.3504  -26.2105 C   0  0  0  0  0  0  0  0  0  0  0  0
   -9.7724  -29.7934  -27.5363 H   0  0  0  0  0  0  0  0  0  0  0  0
  -11.5786  -27.9300  -26.5238 H   0  0  0  0  0  0  0  0  0  0  0  0
  -11.0108  -28.2195  -24.8066 H   0  0  0  0  0  0  0  0  0  0  0  0
   -4.9375  -23.0817  -26.5083 C   0  0  0  0  0  0  0  0  0  0  0  0
   -5.6351  -22.3743  -27.4521 O   0  0  0  0  0  0  0  0  0  0  0  0
   -5.6478  -20.7161  -27.2441 P   0  0  0  0  0  0  0  0  0  0  0  0
   -4.2898  -20.1595  -26.8972 O   0  0  0  0  0  0  0  0  0  0  0  0
   -6.7646  -20.1801  -26.1104 O   0  0  0  0  0  0  0  0  0  0  0  0
   -6.3869  -19.4205  -25.5674 H   0  0  0  0  0  0  0  0  0  0  0  0
   -6.0669  -20.0131  -28.7472 O   0  0  0  0  0  0  0  0  0  0  0  0
   -5.3470  -20.8873  -29.9782 P   0  0  0  0  0  0  0  0  0  0  0  0
   -5.2771  -20.1168  -31.2851 O   0  0  0  0  0  0  0  0  0  0  0  0
   -6.2712  -22.2929  -30.2281 O   0  0  0  0  0  0  0  0  0  0  0  0
   -3.7476  -21.2602  -29.5706 O   0  0  0  0  0  0  0  0  0  0  0  0
   -6.0009  -22.9332  -29.5300 H   0  0  0  0  0  0  0  0  0  0  0  0
   -3.6117  -22.1812  -29.2848 H   0  0  0  0  0  0  0  0  0  0  0  0
 31 32  2  0  0  0
 31 33  1  0  0  0
 31 34  1  0  0  0
 31 30  1  0  0  0
 33 35  1  0  0  0
 34 36  1  0  0  0
 26 30  1  0  0  0
 26 27  2  0  0  0
 26 28  1  0  0  0
 26 25  1  0  0  0
 28 29  1  0  0  0
 25 24  1  0  0  0
 24  1  1  0  0  0
  1  2  1  0  0  0
  1  3  1  0  0  0
  2  7  1  0  0  0
  3  4  1  0  0  0
  3  5  1  0  0  0
  4  8  1  0  0  0
  5  6  1  0  0  0
  5  7  1  0  0  0
  6  9  1  0  0  0
  7 10  1  0  0  0
 10 11  1  0  0  0
 10 20  1  0  0  0
 11 12  2  0  0  0
 12 13  2  0  0  0
 13 14  1  0  0  0
 13 20  2  0  0  0
 14 15  2  0  0  0
 14 16  1  0  0  0
 16 17  1  0  0  0
 16 21  1  0  0  0
 17 18  1  0  0  0
 17 19  2  0  0  0
 18 22  1  0  0  0
 18 23  1  0  0  0
 19 20  2  0  0  0
M  END
> <minimizedAffinity>
-10.08465

$$$$
GDP


 36 38  0  0  0  0  0  0  0  0999 V2000
   -4.9819  -23.2653  -23.8052 C   0  0  0  0  0  0  0  0  0  0  0  0
   -5.5017  -23.8868  -24.9085 O   0  0  0  0  0  0  0  0  0  0  0  0
   -4.7601  -24.3367  -22.7466 C   0  0  0  0  0  0  0  0  0  0  0  0
   -6.0045  -24.5500  -22.1489 O   0  0  0  0  0  0  0  0  0  0  0  0
   -4.4062  -25.5093  -23.6406 C   0  0  0  0  0  0  0  0  0  0  0  0
   -4.6783  -26.7263  -23.0250 O   0  0  0  0  0  0  0  0  0  0  0  0
   -5.3245  -25.2375  -24.8026 C   0  0  0  0  0  0  0  0  0  0  0  0
   -6.7017  -23.9119  -22.4461 H   0  0  0  0  0  0  0  0  0  0  0  0
   -4.3782  -26.6217  -22.0664 H   0  0  0  0  0  0  0  0  0  0  0  0
   -4.7936  -25.8056  -26.0263 N   0  0  0  0  0  0  0  0  0  0  0  0
   -3.6850  -25.4218  -26.6973 C   0  0  0  0  0  0  0  0  0  0  0  0
   -3.5385  -26.2039  -27.7857 N   0  0  0  0  0  0  0  0  0  0  0  0
   -4.5638  -27.0859  -27.7979 C   0  0  0  0  0  0  0  0  0  0  0  0
   -4.9448  -28.1155  -28.6449 C   0  0  0  0  0  0  0  0  0  0  0  0
   -4.2204  -28.3528  -29.6693 O   0  0  0  0  0  0  0  0  0  0  0  0
   -6.0577  -28.8461  -28.3860 N   0  0  0  0  0  0  0  0  0  0  0  0
   -6.8253  -28.6014  -27.3087 C   0  0  0  0  0  0  0  0  0  0  0  0
   -7.9994  -29.3759  -27.0399 N   0  0  0  0  0  0  0  0  0  0  0  0
   -6.4690  -27.6008  -26.4712 N   0  0  0  0  0  0  0  0  0  0  0  0
   -5.3572  -26.8431  -26.6964 C   0  0  0  0  0  0  0  0  0  0  0  0
   -6.3310  -29.6260  -29.0432 H   0  0  0  0  0  0  0  0  0  0  0  0
   -8.7858  -29.3932  -27.7472 H   0  0  0  0  0  0  0  0  0  0  0  0
   -8.0611  -29.9129  -26.1472 H   0  0  0  0  0  0  0  0  0  0  0  0
   -3.6179  -22.7032  -24.2284 C   0  0  0  0  0  0  0  0  0  0  0  0
   -3.6203  -21.3339  -24.1764 O   0  0  0  0  0  0  0  0  0  0  0  0
   -3.2827  -20.5588  -25.6181 P   0  0  0  0  0  0  0  0  0  0  0  0
   -1.8523  -20.7417  -26.0597 O   0  0  0  0  0  0  0  0  0  0  0  0
   -3.6482  -18.9200  -25.6124 O   0  0  0  0  0  0  0  0  0  0  0  0
   -2.9509  -18.3960  -26.1162 H   0  0  0  0  0  0  0  0  0  0  0  0
   -4.2402  -21.2926  -26.8322 O   0  0  0  0  0  0  0  0  0  0  0  0
   -5.7622  -20.5989  -26.8204 P   0  0  0  0  0  0  0  0  0  0  0  0
   -5.8407  -19.3361  -27.6604 O   0  0  0  0  0  0  0  0  0  0  0  0
   -6.1413  -20.2020  -25.2108 O   0  0  0  0  0  0  0  0  0  0  0  0
   -6.8957  -21.6686  -27.4796 O   0  0  0  0  0  0  0  0  0  0  0  0
   -6.4482  -21.0342  -24.7823 H   0  0  0  0  0  0  0  0  0  0  0  0
   -7.4560  -22.1146  -26.8196 H   0  0  0  0  0  0  0  0  0  0  0  0
 31 32  2  0  0  0
 31 33  1  0  0  0
 31 34  1  0  0  0
 31 30  1  0  0  0
 33 35  1  0  0  0
 34 36  1  0  0  0
 26 30  1  0  0  0
 26 27  2  0  0  0
 26 28  1  0  0  0
 26 25  1  0  0  0
 28 29  1  0  0  0
 25 24  1  0  0  0
 24  1  1  0  0  0
  1  2  1  0  0  0
  1  3  1  0  0  0
  2  7  1  0  0  0
  3  4  1  0  0  0
  3  5  1  0  0  0
  4  8  1  0  0  0
  5  6  1  0  0  0
  5  7  1  0  0  0
  6  9  1  0  0  0
  7 10  1  0  0  0
 10 11  1  0  0  0
 10 20  1  0  0  0
 11 12  2  0  0  0
 12 13  2  0  0  0
 13 14  1  0  0  0
 13 20  2  0  0  0
 14 15  2  0  0  0
 14 16  1  0  0  0
 16 17  1  0  0  0
 16 21  1  0  0  0
 17 18  1  0  0  0
 17 19  2  0  0  0
 18 22  1  0  0  0
 18 23  1  0  0  0
 19 20  2  0  0  0
M  END
> <minimizedAffinity>
-9.94999

$$$$
GDP


 36 38  0  0  0  0  0  0  0  0999 V2000
   -5.3454  -22.5237  -24.6647 C   0  0  0  0  0  0  0  0  0  0  0  0
   -5.7446  -23.6152  -25.3879 O   0  0  0  0  0  0  0  0  0  0  0  0
   -4.5867  -23.0404  -23.4501 C   0  0  0  0  0  0  0  0  0  0  0  0
   -5.5592  -23.4117  -22.5186 O   0  0  0  0  0  0  0  0  0  0  0  0
   -3.9488  -24.2761  -24.0545 C   0  0  0  0  0  0  0  0  0  0  0  0
   -3.6505  -25.2278  -23.0852 O   0  0  0  0  0  0  0  0  0  0  0  0
   -5.0579  -24.7204  -24.9709 C   0  0  0  0  0  0  0  0  0  0  0  0
   -6.4804  -23.1655  -22.7877 H   0  0  0  0  0  0  0  0  0  0  0  0
   -3.2780  -24.7125  -22.3007 H   0  0  0  0  0  0  0  0  0  0  0  0
   -4.5333  -25.4786  -26.0897 N   0  0  0  0  0  0  0  0  0  0  0  0
   -3.2825  -25.4325  -26.5995 C   0  0  0  0  0  0  0  0  0  0  0  0
   -3.1995  -26.2907  -27.6359 N   0  0  0  0  0  0  0  0  0  0  0  0
   -4.4084  -26.8805  -27.7778 C   0  0  0  0  0  0  0  0  0  0  0  0
   -4.9270  -27.8281  -28.6472 C   0  0  0  0  0  0  0  0  0  0  0  0
   -4.1579  -28.3044  -29.5483 O   0  0  0  0  0  0  0  0  0  0  0  0
   -6.2167  -28.2328  -28.5374 N   0  0  0  0  0  0  0  0  0  0  0  0
   -7.0324  -27.7350  -27.5904 C   0  0  0  0  0  0  0  0  0  0  0  0
   -8.3934  -28.1658  -27.4789 N   0  0  0  0  0  0  0  0  0  0  0  0
   -6.5436  -26.8096  -26.7334 N   0  0  0  0  0  0  0  0  0  0  0  0
   -5.2524  -26.3764  -26.8107 C   0  0  0  0  0  0  0  0  0  0  0  0
   -6.5929  -28.9554  -29.2091 H   0  0  0  0  0  0  0  0  0  0  0  0
   -9.0534  -28.0247  -28.2933 H   0  0  0  0  0  0  0  0  0  0  0  0
   -8.7140  -28.6139  -26.5925 H   0  0  0  0  0  0  0  0  0  0  0  0
   -4.3700  -21.7462  -25.5588 C   0  0  0  0  0  0  0  0  0  0  0  0
   -4.9380  -20.5781  -25.9954 O   0  0  0  0  0  0  0  0  0  0  0  0
   -5.5519  -20.6137  -27.5494 P   0  0  0  0  0  0  0  0  0  0  0  0
   -6.0637  -19.2709  -28.0071 O   0  0  0  0  0  0  0  0  0  0  0  0
   -6.7522  -21.7648  -27.7816 O   0  0  0  0  0  0  0  0  0  0  0  0
   -7.4774  -21.4091  -28.3834 H   0  0  0  0  0  0  0  0  0  0  0  0
   -4.2603  -21.0014  -28.6032 O   0  0  0  0  0  0  0  0  0  0  0  0
   -4.8849  -21.4784  -30.0797 P   0  0  0  0  0  0  0  0  0  0  0  0
   -3.8774  -21.3637  -31.2103 O   0  0  0  0  0  0  0  0  0  0  0  0
   -6.2109  -20.4741  -30.4332 O   0  0  0  0  0  0  0  0  0  0  0  0
   -5.3379  -23.1078  -30.0223 O   0  0  0  0  0  0  0  0  0  0  0  0
   -6.9752  -20.8302  -29.9237 H   0  0  0  0  0  0  0  0  0  0  0  0
   -6.2975  -23.2538  -29.9426 H   0  0  0  0  0  0  0  0  0  0  0  0
 31 32  2  0  0  0
 31 33  1  0  0  0
 31 34  1  0  0  0
 31 30  1  0  0  0
 33 35  1  0  0  0
 34 36  1  0  0  0
 26 30  1  0  0  0
 26 27  2  0  0  0
 26 28  1  0  0  0
 26 25  1  0  0  0
 28 29  1  0  0  0
 25 24  1  0  0  0
 24  1  1  0  0  0
  1  2  1  0  0  0
  1  3  1  0  0  0
  2  7  1  0  0  0
  3  4  1  0  0  0
  3  5  1  0  0  0
  4  8  1  0  0  0
  5  6  1  0  0  0
  5  7  1  0  0  0
  6  9  1  0  0  0
  7 10  1  0  0  0
 10 11  1  0  0  0
 10 20  1  0  0  0
 11 12  2  0  0  0
 12 13  2  0  0  0
 13 14  1  0  0  0
 13 20  2  0  0  0
 14 15  2  0  0  0
 14 16  1  0  0  0
 16 17  1  0  0  0
 16 21  1  0  0  0
 17 18  1  0  0  0
 17 19  2  0  0  0
 18 22  1  0  0  0
 18 23  1  0  0  0
 19 20  2  0  0  0
M  END
> <minimizedAffinity>
-9.90221

$$$$
GDP


 36 38  0  0  0  0  0  0  0  0999 V2000
   -4.1376  -25.3010  -27.2816 C   0  0  0  0  0  0  0  0  0  0  0  0
   -5.2917  -25.8397  -27.7833 O   0  0  0  0  0  0  0  0  0  0  0  0
   -4.2282  -25.3744  -25.7637 C   0  0  0  0  0  0  0  0  0  0  0  0
   -5.0107  -24.2854  -25.3721 O   0  0  0  0  0  0  0  0  0  0  0  0
   -5.0185  -26.6602  -25.6172 C   0  0  0  0  0  0  0  0  0  0  0  0
   -5.7113  -26.7041  -24.4121 O   0  0  0  0  0  0  0  0  0  0  0  0
   -5.9389  -26.5371  -26.8025 C   0  0  0  0  0  0  0  0  0  0  0  0
   -5.2305  -23.6678  -26.1150 H   0  0  0  0  0  0  0  0  0  0  0  0
   -5.0773  -26.3355  -23.7179 H   0  0  0  0  0  0  0  0  0  0  0  0
   -6.3644  -27.8432  -27.2660 N   0  0  0  0  0  0  0  0  0  0  0  0
   -5.6216  -28.7674  -27.9146 C   0  0  0  0  0  0  0  0  0  0  0  0
   -6.3889  -29.8461  -28.1698 N   0  0  0  0  0  0  0  0  0  0  0  0
   -7.6237  -29.5970  -27.6772 C   0  0  0  0  0  0  0  0  0  0  0  0
   -8.8118  -30.3107  -27.6370 C   0  0  0  0  0  0  0  0  0  0  0  0
   -8.8337  -31.4752  -28.1602 O   0  0  0  0  0  0  0  0  0  0  0  0
   -9.9164  -29.7797  -27.0562 N   0  0  0  0  0  0  0  0  0  0  0  0
   -9.9003  -28.5534  -26.5032 C   0  0  0  0  0  0  0  0  0  0  0  0
  -11.0695  -27.9974  -25.8913 N   0  0  0  0  0  0  0  0  0  0  0  0
   -8.7498  -27.8426  -26.5332 N   0  0  0  0  0  0  0  0  0  0  0  0
   -7.6174  -28.3410  -27.1077 C   0  0  0  0  0  0  0  0  0  0  0  0
  -10.8117  -30.3390  -27.0357 H   0  0  0  0  0  0  0  0  0  0  0  0
  -11.9443  -27.8579  -26.4693 H   0  0  0  0  0  0  0  0  0  0  0  0
  -11.0400  -27.7377  -24.8810 H   0  0  0  0  0  0  0  0  0  0  0  0
   -2.9957  -26.2132  -27.7501 C   0  0  0  0  0  0  0  0  0  0  0  0
   -2.7385  -26.0230  -29.0825 O   0  0  0  0  0  0  0  0  0  0  0  0
   -2.3349  -27.3991  -29.9407 P   0  0  0  0  0  0  0  0  0  0  0  0
   -3.5349  -28.2417  -30.2934 O   0  0  0  0  0  0  0  0  0  0  0  0
   -1.1921  -28.3659  -29.1798 O   0  0  0  0  0  0  0  0  0  0  0  0
   -1.4056  -29.3417  -29.3093 H   0  0  0  0  0  0  0  0  0  0  0  0
   -1.6668  -26.8957  -31.4339 O   0  0  0  0  0  0  0  0  0  0  0  0
   -2.6107  -25.6692  -32.0683 P   0  0  0  0  0  0  0  0  0  0  0  0
   -2.1331  -24.2867  -31.6595 O   0  0  0  0  0  0  0  0  0  0  0  0
   -4.1976  -25.8842  -31.4960 O   0  0  0  0  0  0  0  0  0  0  0  0
   -2.5506  -25.7022  -33.7591 O   0  0  0  0  0  0  0  0  0  0  0  0
   -4.6076  -26.5782  -32.0623 H   0  0  0  0  0  0  0  0  0  0  0  0
   -3.3429  -26.0805  -34.1804 H   0  0  0  0  0  0  0  0  0  0  0  0
 31 32  2  0  0  0
 31 33  1  0  0  0
 31 34  1  0  0  0
 31 30  1  0  0  0
 33 35  1  0  0  0
 34 36  1  0  0  0
 26 30  1  0  0  0
 26 27  2  0  0  0
 26 28  1  0  0  0
 26 25  1  0  0  0
 28 29  1  0  0  0
 25 24  1  0  0  0
 24  1  1  0  0  0
  1  2  1  0  0  0
  1  3  1  0  0  0
  2  7  1  0  0  0
  3  4  1  0  0  0
  3  5  1  0  0  0
  4  8  1  0  0  0
  5  6  1  0  0  0
  5  7  1  0  0  0
  6  9  1  0  0  0
  7 10  1  0  0  0
 10 11  1  0  0  0
 10 20  1  0  0  0
 11 12  2  0  0  0
 12 13  2  0  0  0
 13 14  1  0  0  0
 13 20  2  0  0  0
 14 15  2  0  0  0
 14 16  1  0  0  0
 16 17  1  0  0  0
 16 21  1  0  0  0
 17 18  1  0  0  0
 17 19  2  0  0  0
 18 22  1  0  0  0
 18 23  1  0  0  0
 19 20  2  0  0  0
M  END
> <minimizedAffinity>
-9.81688

$$$$
GDP


 36 38  0  0  0  0  0  0  0  0999 V2000
   -3.6052  -28.4213  -28.3166 C   0  0  0  0  0  0  0  0  0  0  0  0
   -3.9847  -27.8824  -29.5164 O   0  0  0  0  0  0  0  0  0  0  0  0
   -2.2225  -29.0278  -28.5119 C   0  0  0  0  0  0  0  0  0  0  0  0
   -2.4301  -30.2748  -29.1063 O   0  0  0  0  0  0  0  0  0  0  0  0
   -1.6588  -28.0555  -29.5298 C   0  0  0  0  0  0  0  0  0  0  0  0
   -0.6500  -28.6351  -30.2916 O   0  0  0  0  0  0  0  0  0  0  0  0
   -2.8982  -27.7766  -30.3382 C   0  0  0  0  0  0  0  0  0  0  0  0
   -3.3851  -30.5321  -29.1645 H   0  0  0  0  0  0  0  0  0  0  0  0
   -0.0957  -29.1777  -29.6449 H   0  0  0  0  0  0  0  0  0  0  0  0
   -2.8256  -26.4711  -30.9644 N   0  0  0  0  0  0  0  0  0  0  0  0
   -3.5040  -25.3546  -30.6184 C   0  0  0  0  0  0  0  0  0  0  0  0
   -3.1534  -24.3531  -31.4500 N   0  0  0  0  0  0  0  0  0  0  0  0
   -2.2472  -24.8451  -32.3254 C   0  0  0  0  0  0  0  0  0  0  0  0
   -1.5394  -24.3082  -33.3900 C   0  0  0  0  0  0  0  0  0  0  0  0
   -1.7248  -23.0781  -33.6781 O   0  0  0  0  0  0  0  0  0  0  0  0
   -0.6758  -25.0748  -34.1013 N   0  0  0  0  0  0  0  0  0  0  0  0
   -0.4759  -26.3713  -33.8031 C   0  0  0  0  0  0  0  0  0  0  0  0
    0.4371  -27.1763  -34.5574 N   0  0  0  0  0  0  0  0  0  0  0  0
   -1.1578  -26.9121  -32.7676 N   0  0  0  0  0  0  0  0  0  0  0  0
   -2.0353  -26.1749  -32.0278 C   0  0  0  0  0  0  0  0  0  0  0  0
   -0.1462  -24.6473  -34.9085 H   0  0  0  0  0  0  0  0  0  0  0  0
    0.2773  -27.3138  -35.5939 H   0  0  0  0  0  0  0  0  0  0  0  0
    1.2488  -27.6162  -34.0708 H   0  0  0  0  0  0  0  0  0  0  0  0
   -3.4926  -27.2488  -27.3327 C   0  0  0  0  0  0  0  0  0  0  0  0
   -4.6305  -26.4856  -27.3554 O   0  0  0  0  0  0  0  0  0  0  0  0
   -5.6777  -26.7173  -26.0738 P   0  0  0  0  0  0  0  0  0  0  0  0
   -6.8404  -25.7569  -26.0872 O   0  0  0  0  0  0  0  0  0  0  0  0
   -4.9361  -26.6575  -24.5685 O   0  0  0  0  0  0  0  0  0  0  0  0
   -5.5247  -26.1903  -23.8978 H   0  0  0  0  0  0  0  0  0  0  0  0
   -6.3624  -28.2765  -26.2453 O   0  0  0  0  0  0  0  0  0  0  0  0
   -7.4619  -28.2541  -27.5056 P   0  0  0  0  0  0  0  0  0  0  0  0
   -7.6998  -29.6294  -28.1044 O   0  0  0  0  0  0  0  0  0  0  0  0
   -6.8428  -27.2360  -28.7189 O   0  0  0  0  0  0  0  0  0  0  0  0
   -8.9695  -27.7181  -26.9549 O   0  0  0  0  0  0  0  0  0  0  0  0
   -7.0471  -26.3133  -28.4410 H   0  0  0  0  0  0  0  0  0  0  0  0
   -9.1785  -26.7974  -27.1935 H   0  0  0  0  0  0  0  0  0  0  0  0
 31 32  2  0  0  0
 31 33  1  0  0  0
 31 34  1  0  0  0
 31 30  1  0  0  0
 33 35  1  0  0  0
 34 36  1  0  0  0
 26 30  1  0  0  0
 26 27  2  0  0  0
 26 28  1  0  0  0
 26 25  1  0  0  0
 28 29  1  0  0  0
 25 24  1  0  0  0
 24  1  1  0  0  0
  1  2  1  0  0  0
  1  3  1  0  0  0
  2  7  1  0  0  0
  3  4  1  0  0  0
  3  5  1  0  0  0
  4  8  1  0  0  0
  5  6  1  0  0  0
  5  7  1  0  0  0
  6  9  1  0  0  0
  7 10  1  0  0  0
 10 11  1  0  0  0
 10 20  1  0  0  0
 11 12  2  0  0  0
 12 13  2  0  0  0
 13 14  1  0  0  0
 13 20  2  0  0  0
 14 15  2  0  0  0
 14 16  1  0  0  0
 16 17  1  0  0  0
 16 21  1  0  0  0
 17 18  1  0  0  0
 17 19  2  0  0  0
 18 22  1  0  0  0
 18 23  1  0  0  0
 19 20  2  0  0  0
M  END
> <minimizedAffinity>
-9.80809

$$$$
GDP


 36 38  0  0  0  0  0  0  0  0999 V2000
   -6.0838  -23.6963  -24.6465 C   0  0  0  0  0  0  0  0  0  0  0  0
   -6.9707  -24.6693  -25.0215 O   0  0  0  0  0  0  0  0  0  0  0  0
   -5.1756  -24.2992  -23.5838 C   0  0  0  0  0  0  0  0  0  0  0  0
   -5.8900  -24.2333  -22.3851 O   0  0  0  0  0  0  0  0  0  0  0  0
   -5.1217  -25.7321  -24.0772 C   0  0  0  0  0  0  0  0  0  0  0  0
   -4.8291  -26.6203  -23.0478 O   0  0  0  0  0  0  0  0  0  0  0  0
   -6.5314  -25.8867  -24.5834 C   0  0  0  0  0  0  0  0  0  0  0  0
   -6.7411  -23.7313  -22.4580 H   0  0  0  0  0  0  0  0  0  0  0  0
   -4.1106  -26.1736  -22.4964 H   0  0  0  0  0  0  0  0  0  0  0  0
   -6.5994  -26.8886  -25.6291 N   0  0  0  0  0  0  0  0  0  0  0  0
   -5.6157  -27.2575  -26.4792 C   0  0  0  0  0  0  0  0  0  0  0  0
   -6.0829  -28.2204  -27.2991 N   0  0  0  0  0  0  0  0  0  0  0  0
   -7.3707  -28.4579  -26.9607 C   0  0  0  0  0  0  0  0  0  0  0  0
   -8.3525  -29.3165  -27.4312 C   0  0  0  0  0  0  0  0  0  0  0  0
   -8.0597  -30.0933  -28.4014 O   0  0  0  0  0  0  0  0  0  0  0  0
   -9.5878  -29.3253  -26.8712 N   0  0  0  0  0  0  0  0  0  0  0  0
   -9.9029  -28.5096  -25.8489 C   0  0  0  0  0  0  0  0  0  0  0  0
  -11.2087  -28.5229  -25.2614 N   0  0  0  0  0  0  0  0  0  0  0  0
   -8.9575  -27.6651  -25.3768 N   0  0  0  0  0  0  0  0  0  0  0  0
   -7.7036  -27.6258  -25.9125 C   0  0  0  0  0  0  0  0  0  0  0  0
  -10.3217  -29.9866  -27.2438 H   0  0  0  0  0  0  0  0  0  0  0  0
  -12.0518  -28.2985  -25.8594 H   0  0  0  0  0  0  0  0  0  0  0  0
  -11.3083  -28.7545  -24.2487 H   0  0  0  0  0  0  0  0  0  0  0  0
   -5.2413  -23.3776  -25.8891 C   0  0  0  0  0  0  0  0  0  0  0  0
   -5.9915  -22.7194  -26.8280 O   0  0  0  0  0  0  0  0  0  0  0  0
   -5.9563  -21.0510  -26.7363 P   0  0  0  0  0  0  0  0  0  0  0  0
   -6.3325  -20.5320  -25.3712 O   0  0  0  0  0  0  0  0  0  0  0  0
   -6.9025  -20.2849  -27.8927 O   0  0  0  0  0  0  0  0  0  0  0  0
   -7.3601  -19.4769  -27.5026 H   0  0  0  0  0  0  0  0  0  0  0  0
   -4.3375  -20.5567  -26.9902 O   0  0  0  0  0  0  0  0  0  0  0  0
   -4.2792  -18.8860  -27.0452 P   0  0  0  0  0  0  0  0  0  0  0  0
   -5.1526  -18.3017  -28.1417 O   0  0  0  0  0  0  0  0  0  0  0  0
   -2.6671  -18.4304  -27.3377 O   0  0  0  0  0  0  0  0  0  0  0  0
   -4.8549  -18.2342  -25.5935 O   0  0  0  0  0  0  0  0  0  0  0  0
   -2.2005  -18.4811  -26.4716 H   0  0  0  0  0  0  0  0  0  0  0  0
   -4.1577  -17.9090  -24.9965 H   0  0  0  0  0  0  0  0  0  0  0  0
 31 32  2  0  0  0
 31 33  1  0  0  0
 31 34  1  0  0  0
 31 30  1  0  0  0
 33 35  1  0  0  0
 34 36  1  0  0  0
 26 30  1  0  0  0
 26 27  2  0  0  0
 26 28  1  0  0  0
 26 25  1  0  0  0
 28 29  1  0  0  0
 25 24  1  0  0  0
 24  1  1  0  0  0
  1  2  1  0  0  0
  1  3  1  0  0  0
  2  7  1  0  0  0
  3  4  1  0  0  0
  3  5  1  0  0  0
  4  8  1  0  0  0
  5  6  1  0  0  0
  5  7  1  0  0  0
  6  9  1  0  0  0
  7 10  1  0  0  0
 10 11  1  0  0  0
 10 20  1  0  0  0
 11 12  2  0  0  0
 12 13  2  0  0  0
 13 14  1  0  0  0
 13 20  2  0  0  0
 14 15  2  0  0  0
 14 16  1  0  0  0
 16 17  1  0  0  0
 16 21  1  0  0  0
 17 18  1  0  0  0
 17 19  2  0  0  0
 18 22  1  0  0  0
 18 23  1  0  0  0
 19 20  2  0  0  0
M  END
> <minimizedAffinity>
-9.77578

$$$$
GDP


 36 38  0  0  0  0  0  0  0  0999 V2000
   -5.4971  -23.3749  -25.0724 C   0  0  0  0  0  0  0  0  0  0  0  0
   -6.4027  -24.2966  -25.5241 O   0  0  0  0  0  0  0  0  0  0  0  0
   -4.8786  -23.9365  -23.7997 C   0  0  0  0  0  0  0  0  0  0  0  0
   -5.7927  -23.6694  -22.7777 O   0  0  0  0  0  0  0  0  0  0  0  0
   -4.8963  -25.4145  -24.1381 C   0  0  0  0  0  0  0  0  0  0  0  0
   -4.9046  -26.2046  -22.9936 O   0  0  0  0  0  0  0  0  0  0  0  0
   -6.1944  -25.4926  -24.8971 C   0  0  0  0  0  0  0  0  0  0  0  0
   -6.5524  -23.1014  -23.0638 H   0  0  0  0  0  0  0  0  0  0  0  0
   -4.2561  -25.7678  -22.3544 H   0  0  0  0  0  0  0  0  0  0  0  0
   -6.1788  -26.5951  -25.8384 N   0  0  0  0  0  0  0  0  0  0  0  0
   -5.1211  -27.0652  -26.5361 C   0  0  0  0  0  0  0  0  0  0  0  0
   -5.5250  -28.0993  -27.3010 N   0  0  0  0  0  0  0  0  0  0  0  0
   -6.8473  -28.2798  -27.0816 C   0  0  0  0  0  0  0  0  0  0  0  0
   -7.7969  -29.1661  -27.5670 C   0  0  0  0  0  0  0  0  0  0  0  0
   -7.4244  -30.0429  -28.4172 O   0  0  0  0  0  0  0  0  0  0  0  0
   -9.0842  -29.0973  -27.1456 N   0  0  0  0  0  0  0  0  0  0  0  0
   -9.4833  -28.1761  -26.2501 C   0  0  0  0  0  0  0  0  0  0  0  0
  -10.8438  -28.1078  -25.8086 N   0  0  0  0  0  0  0  0  0  0  0  0
   -8.5706  -27.3032  -25.7657 N   0  0  0  0  0  0  0  0  0  0  0  0
   -7.2664  -27.3394  -26.1641 C   0  0  0  0  0  0  0  0  0  0  0  0
   -9.7923  -29.7812  -27.5271 H   0  0  0  0  0  0  0  0  0  0  0  0
  -11.6126  -27.9322  -26.5136 H   0  0  0  0  0  0  0  0  0  0  0  0
  -11.0562  -28.2328  -24.7945 H   0  0  0  0  0  0  0  0  0  0  0  0
   -4.4060  -23.2784  -26.1474 C   0  0  0  0  0  0  0  0  0  0  0  0
   -4.9117  -23.5935  -27.3814 O   0  0  0  0  0  0  0  0  0  0  0  0
   -4.1627  -22.8497  -28.6770 P   0  0  0  0  0  0  0  0  0  0  0  0
   -4.9241  -23.0172  -29.9680 O   0  0  0  0  0  0  0  0  0  0  0  0
   -2.5719  -23.3324  -28.9135 O   0  0  0  0  0  0  0  0  0  0  0  0
   -2.3648  -23.4134  -29.8959 H   0  0  0  0  0  0  0  0  0  0  0  0
   -4.1458  -21.1672  -28.3637 O   0  0  0  0  0  0  0  0  0  0  0  0
   -5.6719  -20.5438  -28.6469 P   0  0  0  0  0  0  0  0  0  0  0  0
   -5.8305  -19.1210  -28.1400 O   0  0  0  0  0  0  0  0  0  0  0  0
   -6.7963  -21.5333  -27.8413 O   0  0  0  0  0  0  0  0  0  0  0  0
   -5.9778  -20.4832  -30.3101 O   0  0  0  0  0  0  0  0  0  0  0  0
   -6.9413  -22.3187  -28.4179 H   0  0  0  0  0  0  0  0  0  0  0  0
   -6.5665  -21.1877  -30.6347 H   0  0  0  0  0  0  0  0  0  0  0  0
 31 32  2  0  0  0
 31 33  1  0  0  0
 31 34  1  0  0  0
 31 30  1  0  0  0
 33 35  1  0  0  0
 34 36  1  0  0  0
 26 30  1  0  0  0
 26 27  2  0  0  0
 26 28  1  0  0  0
 26 25  1  0  0  0
 28 29  1  0  0  0
 25 24  1  0  0  0
 24  1  1  0  0  0
  1  2  1  0  0  0
  1  3  1  0  0  0
  2  7  1  0  0  0
  3  4  1  0  0  0
  3  5  1  0  0  0
  4  8  1  0  0  0
  5  6  1  0  0  0
  5  7  1  0  0  0
  6  9  1  0  0  0
  7 10  1  0  0  0
 10 11  1  0  0  0
 10 20  1  0  0  0
 11 12  2  0  0  0
 12 13  2  0  0  0
 13 14  1  0  0  0
 13 20  2  0  0  0
 14 15  2  0  0  0
 14 16  1  0  0  0
 16 17  1  0  0  0
 16 21  1  0  0  0
 17 18  1  0  0  0
 17 19  2  0  0  0
 18 22  1  0  0  0
 18 23  1  0  0  0
 19 20  2  0  0  0
M  END
> <minimizedAffinity>
-9.70898

$$$$
GDP


 36 38  0  0  0  0  0  0  0  0999 V2000
   -4.7505  -24.3968  -25.5272 C   0  0  0  0  0  0  0  0  0  0  0  0
   -4.6894  -25.3760  -26.4819 O   0  0  0  0  0  0  0  0  0  0  0  0
   -3.3544  -24.2547  -24.9369 C   0  0  0  0  0  0  0  0  0  0  0  0
   -3.2267  -25.2829  -23.9999 O   0  0  0  0  0  0  0  0  0  0  0  0
   -2.5243  -24.5678  -26.1667 C   0  0  0  0  0  0  0  0  0  0  0  0
   -1.2616  -25.0423  -25.8283 O   0  0  0  0  0  0  0  0  0  0  0  0
   -3.3846  -25.6299  -26.7985 C   0  0  0  0  0  0  0  0  0  0  0  0
   -4.0666  -25.7855  -23.8458 H   0  0  0  0  0  0  0  0  0  0  0  0
   -0.9525  -24.4713  -25.0548 H   0  0  0  0  0  0  0  0  0  0  0  0
   -3.1809  -25.6760  -28.2331 N   0  0  0  0  0  0  0  0  0  0  0  0
   -3.6128  -24.7857  -29.1537 C   0  0  0  0  0  0  0  0  0  0  0  0
   -3.2152  -25.1915  -30.3764 N   0  0  0  0  0  0  0  0  0  0  0  0
   -2.5280  -26.3462  -30.2219 C   0  0  0  0  0  0  0  0  0  0  0  0
   -1.8895  -27.2163  -31.0925 C   0  0  0  0  0  0  0  0  0  0  0  0
   -1.9053  -26.9413  -32.3393 O   0  0  0  0  0  0  0  0  0  0  0  0
   -1.2675  -28.3272  -30.6250 N   0  0  0  0  0  0  0  0  0  0  0  0
   -1.2471  -28.6228  -29.3128 C   0  0  0  0  0  0  0  0  0  0  0  0
   -0.5889  -29.7971  -28.8245 N   0  0  0  0  0  0  0  0  0  0  0  0
   -1.8649  -27.7853  -28.4487 N   0  0  0  0  0  0  0  0  0  0  0  0
   -2.5015  -26.6580  -28.8789 C   0  0  0  0  0  0  0  0  0  0  0  0
   -0.7869  -28.9774  -31.3041 H   0  0  0  0  0  0  0  0  0  0  0  0
   -0.9061  -30.7494  -29.1581 H   0  0  0  0  0  0  0  0  0  0  0  0
    0.1962  -29.6944  -28.1447 H   0  0  0  0  0  0  0  0  0  0  0  0
   -5.1072  -23.0980  -26.2627 C   0  0  0  0  0  0  0  0  0  0  0  0
   -5.1786  -22.0477  -25.3855 O   0  0  0  0  0  0  0  0  0  0  0  0
   -4.3884  -20.6552  -25.8648 P   0  0  0  0  0  0  0  0  0  0  0  0
   -3.0002  -20.5416  -25.2866 O   0  0  0  0  0  0  0  0  0  0  0  0
   -5.2355  -19.2433  -25.5353 O   0  0  0  0  0  0  0  0  0  0  0  0
   -4.6104  -18.5126  -25.2356 H   0  0  0  0  0  0  0  0  0  0  0  0
   -4.1784  -20.7418  -27.5612 O   0  0  0  0  0  0  0  0  0  0  0  0
   -5.4565  -19.9648  -28.3098 P   0  0  0  0  0  0  0  0  0  0  0  0
   -5.6210  -20.3686  -29.7646 O   0  0  0  0  0  0  0  0  0  0  0  0
   -5.1597  -18.2916  -28.2434 O   0  0  0  0  0  0  0  0  0  0  0  0
   -6.9120  -20.3680  -27.5466 O   0  0  0  0  0  0  0  0  0  0  0  0
   -5.4257  -17.9959  -27.3421 H   0  0  0  0  0  0  0  0  0  0  0  0
   -7.2632  -19.6730  -26.9618 H   0  0  0  0  0  0  0  0  0  0  0  0
 31 32  2  0  0  0
 31 33  1  0  0  0
 31 34  1  0  0  0
 31 30  1  0  0  0
 33 35  1  0  0  0
 34 36  1  0  0  0
 26 30  1  0  0  0
 26 27  2  0  0  0
 26 28  1  0  0  0
 26 25  1  0  0  0
 28 29  1  0  0  0
 25 24  1  0  0  0
 24  1  1  0  0  0
  1  2  1  0  0  0
  1  3  1  0  0  0
  2  7  1  0  0  0
  3  4  1  0  0  0
  3  5  1  0  0  0
  4  8  1  0  0  0
  5  6  1  0  0  0
  5  7  1  0  0  0
  6  9  1  0  0  0
  7 10  1  0  0  0
 10 11  1  0  0  0
 10 20  1  0  0  0
 11 12  2  0  0  0
 12 13  2  0  0  0
 13 14  1  0  0  0
 13 20  2  0  0  0
 14 15  2  0  0  0
 14 16  1  0  0  0
 16 17  1  0  0  0
 16 21  1  0  0  0
 17 18  1  0  0  0
 17 19  2  0  0  0
 18 22  1  0  0  0
 18 23  1  0  0  0
 19 20  2  0  0  0
M  END
> <minimizedAffinity>
-9.67500

$$$$
