GTP


 41 43  0  0  0  0  0  0  0  0999 V2000
   -5.1983  -23.9686  -25.2459 C   0  0  0  0  0  0  0  0  0  0  0  0
   -4.7035  -23.1168  -26.2542 O   0  0  0  0  0  0  0  0  0  0  0  0
   -6.6674  -23.7050  -25.3444 C   0  0  0  0  0  0  0  0  0  0  0  0
   -7.3453  -23.9411  -24.1523 O   0  0  0  0  0  0  0  0  0  0  0  0
   -6.7334  -22.2109  -25.5779 C   0  0  0  0  0  0  0  0  0  0  0  0
   -6.9898  -21.5348  -24.4100 O   0  0  0  0  0  0  0  0  0  0  0  0
   -5.3283  -21.8870  -26.0351 C   0  0  0  0  0  0  0  0  0  0  0  0
   -7.8301  -23.1799  -23.7993 H   0  0  0  0  0  0  0  0  0  0  0  0
   -6.2800  -21.7646  -23.7731 H   0  0  0  0  0  0  0  0  0  0  0  0
   -5.4247  -21.1936  -27.3054 N   0  0  0  0  0  0  0  0  0  0  0  0
   -5.8488  -19.9232  -27.4287 C   0  0  0  0  0  0  0  0  0  0  0  0
   -5.8296  -19.5591  -28.7178 N   0  0  0  0  0  0  0  0  0  0  0  0
   -5.3880  -20.6036  -29.4458 C   0  0  0  0  0  0  0  0  0  0  0  0
   -5.1617  -20.8232  -30.7885 C   0  0  0  0  0  0  0  0  0  0  0  0
   -5.3875  -19.8983  -31.6162 O   0  0  0  0  0  0  0  0  0  0  0  0
   -4.6992  -22.0387  -31.1761 N   0  0  0  0  0  0  0  0  0  0  0  0
   -4.4528  -23.0342  -30.3150 C   0  0  0  0  0  0  0  0  0  0  0  0
   -3.9673  -24.2861  -30.7963 N   0  0  0  0  0  0  0  0  0  0  0  0
   -4.6761  -22.8189  -28.9858 N   0  0  0  0  0  0  0  0  0  0  0  0
   -5.1360  -21.6278  -28.5451 C   0  0  0  0  0  0  0  0  0  0  0  0
   -4.5463  -22.1451  -32.2123 H   0  0  0  0  0  0  0  0  0  0  0  0
   -3.0063  -24.2870  -31.2405 H   0  0  0  0  0  0  0  0  0  0  0  0
   -4.5154  -25.1716  -30.7248 H   0  0  0  0  0  0  0  0  0  0  0  0
   -4.8412  -25.3943  -25.6141 C   0  0  0  0  0  0  0  0  0  0  0  0
   -5.5751  -25.8463  -26.7017 O   0  0  0  0  0  0  0  0  0  0  0  0
   -4.5836  -26.4763  -27.9250 P   0  0  0  0  0  0  0  0  0  0  0  0
   -3.3589  -25.5909  -28.0036 O   0  0  0  0  0  0  0  0  0  0  0  0
   -5.5002  -26.4059  -29.3424 O   0  0  0  0  0  0  0  0  0  0  0  0
   -6.4042  -26.0760  -29.2278 H   0  0  0  0  0  0  0  0  0  0  0  0
   -4.0420  -28.0185  -27.5865 O   0  0  0  0  0  0  0  0  0  0  0  0
   -2.7979  -28.5398  -28.5778 P   0  0  0  0  0  0  0  0  0  0  0  0
   -2.8490  -30.0650  -28.6086 O   0  0  0  0  0  0  0  0  0  0  0  0
   -1.2766  -28.0706  -28.0906 O   0  0  0  0  0  0  0  0  0  0  0  0
   -1.3673  -27.4827  -27.2875 H   0  0  0  0  0  0  0  0  0  0  0  0
   -3.1210  -28.0040  -30.1445 O   0  0  0  0  0  0  0  0  0  0  0  0
   -1.7732  -27.4000  -30.9264 P   0  0  0  0  0  0  0  0  0  0  0  0
   -1.3684  -26.0921  -30.2845 O   0  0  0  0  0  0  0  0  0  0  0  0
   -2.0775  -27.0602  -32.5637 O   0  0  0  0  0  0  0  0  0  0  0  0
   -0.4332  -28.4427  -30.7834 O   0  0  0  0  0  0  0  0  0  0  0  0
   -2.6241  -26.2335  -32.5666 H   0  0  0  0  0  0  0  0  0  0  0  0
   -0.6897  -29.3417  -31.1105 H   0  0  0  0  0  0  0  0  0  0  0  0
 36 37  2  0  0  0
 36 38  1  0  0  0
 36 39  1  0  0  0
 36 35  1  0  0  0
 38 40  1  0  0  0
 39 41  1  0  0  0
 31 35  1  0  0  0
 31 32  2  0  0  0
 31 33  1  0  0  0
 31 30  1  0  0  0
 33 34  1  0  0  0
 26 30  1  0  0  0
 26 27  2  0  0  0
 26 28  1  0  0  0
 26 25  1  0  0  0
 28 29  1  0  0  0
 25 24  1  0  0  0
 24  1  1  0  0  0
  1  2  1  0  0  0
  1  3  1  0  0  0
  2  7  1  0  0  0
  3  4  1  0  0  0
  3  5  1  0  0  0
  4  8  1  0  0  0
  5  6  1  0  0  0
  5  7  1  0  0  0
  6  9  1  0  0  0
  7 10  1  0  0  0
 10 11  1  0  0  0
 10 20  1  0  0  0
 11 12  2  0  0  0
 12 13  2  0  0  0
 13 14  1  0  0  0
 13 20  2  0  0  0
 14 15  2  0  0  0
 14 16  1  0  0  0
 16 17  1  0  0  0
 16 21  1  0  0  0
 17 18  1  0  0  0
 17 19  2  0  0  0
 18 22  1  0  0  0
 18 23  1  0  0  0
 19 20  2  0  0  0
M  END
> <minimizedAffinity>
-10.84350

$$$$
GTP


 41 43  0  0  0  0  0  0  0  0999 V2000
   -5.3862  -22.6247  -25.0956 C   0  0  0  0  0  0  0  0  0  0  0  0
   -4.9222  -22.7490  -26.4208 O   0  0  0  0  0  0  0  0  0  0  0  0
   -6.4729  -21.6112  -25.2670 C   0  0  0  0  0  0  0  0  0  0  0  0
   -6.7219  -20.8775  -24.1111 O   0  0  0  0  0  0  0  0  0  0  0  0
   -5.8812  -20.6384  -26.2643 C   0  0  0  0  0  0  0  0  0  0  0  0
   -5.3571  -19.5360  -25.6344 O   0  0  0  0  0  0  0  0  0  0  0  0
   -4.7521  -21.4389  -26.8745 C   0  0  0  0  0  0  0  0  0  0  0  0
   -6.6207  -19.9183  -24.2052 H   0  0  0  0  0  0  0  0  0  0  0  0
   -4.6789  -19.8521  -25.0000 H   0  0  0  0  0  0  0  0  0  0  0  0
   -4.9303  -21.4298  -28.3140 N   0  0  0  0  0  0  0  0  0  0  0  0
   -5.5523  -20.4406  -28.9799 C   0  0  0  0  0  0  0  0  0  0  0  0
   -5.5625  -20.7103  -30.2921 N   0  0  0  0  0  0  0  0  0  0  0  0
   -4.9400  -21.8896  -30.4863 C   0  0  0  0  0  0  0  0  0  0  0  0
   -4.6497  -22.6626  -31.5912 C   0  0  0  0  0  0  0  0  0  0  0  0
   -5.0036  -22.2679  -32.7360 O   0  0  0  0  0  0  0  0  0  0  0  0
   -3.9868  -23.8320  -31.4062 N   0  0  0  0  0  0  0  0  0  0  0  0
   -3.6019  -24.2700  -30.2006 C   0  0  0  0  0  0  0  0  0  0  0  0
   -2.9081  -25.5107  -30.0835 N   0  0  0  0  0  0  0  0  0  0  0  0
   -3.8882  -23.5065  -29.1061 N   0  0  0  0  0  0  0  0  0  0  0  0
   -4.5459  -22.3336  -29.2328 C   0  0  0  0  0  0  0  0  0  0  0  0
   -3.7944  -24.3767  -32.2864 H   0  0  0  0  0  0  0  0  0  0  0  0
   -1.9496  -25.5661  -30.5297 H   0  0  0  0  0  0  0  0  0  0  0  0
   -3.3064  -26.3377  -29.5866 H   0  0  0  0  0  0  0  0  0  0  0  0
   -5.9179  -23.9726  -24.6525 C   0  0  0  0  0  0  0  0  0  0  0  0
   -6.6779  -24.5790  -25.6426 O   0  0  0  0  0  0  0  0  0  0  0  0
   -6.7118  -26.2668  -25.4793 P   0  0  0  0  0  0  0  0  0  0  0  0
   -7.9260  -26.6073  -24.6427 O   0  0  0  0  0  0  0  0  0  0  0  0
   -5.2740  -26.6825  -24.6960 O   0  0  0  0  0  0  0  0  0  0  0  0
   -4.6786  -25.9396  -24.5146 H   0  0  0  0  0  0  0  0  0  0  0  0
   -6.8977  -27.0529  -26.9401 O   0  0  0  0  0  0  0  0  0  0  0  0
   -5.5020  -27.1232  -27.8617 P   0  0  0  0  0  0  0  0  0  0  0  0
   -4.5292  -26.0931  -27.2940 O   0  0  0  0  0  0  0  0  0  0  0  0
   -5.7211  -26.8082  -29.4817 O   0  0  0  0  0  0  0  0  0  0  0  0
   -6.6978  -26.6819  -29.6518 H   0  0  0  0  0  0  0  0  0  0  0  0
   -4.8023  -28.6409  -27.6322 O   0  0  0  0  0  0  0  0  0  0  0  0
   -3.3389  -28.8187  -28.4193 P   0  0  0  0  0  0  0  0  0  0  0  0
   -2.8418  -30.2348  -28.2345 O   0  0  0  0  0  0  0  0  0  0  0  0
   -2.1376  -27.7986  -27.7826 O   0  0  0  0  0  0  0  0  0  0  0  0
   -3.4854  -28.5743  -30.0992 O   0  0  0  0  0  0  0  0  0  0  0  0
   -1.8800  -28.2008  -26.9143 H   0  0  0  0  0  0  0  0  0  0  0  0
   -3.8967  -27.6876  -30.2599 H   0  0  0  0  0  0  0  0  0  0  0  0
 36 37  2  0  0  0
 36 38  1  0  0  0
 36 39  1  0  0  0
 36 35  1  0  0  0
 38 40  1  0  0  0
 39 41  1  0  0  0
 31 35  1  0  0  0
 31 32  2  0  0  0
 31 33  1  0  0  0
 31 30  1  0  0  0
 33 34  1  0  0  0
 26 30  1  0  0  0
 26 27  2  0  0  0
 26 28  1  0  0  0
 26 25  1  0  0  0
 28 29  1  0  0  0
 25 24  1  0  0  0
 24  1  1  0  0  0
  1  2  1  0  0  0
  1  3  1  0  0  0
  2  7  1  0  0  0
  3  4  1  0  0  0
  3  5  1  0  0  0
  4  8  1  0  0  0
  5  6  1  0  0  0
  5  7  1  0  0  0
  6  9  1  0  0  0
  7 10  1  0  0  0
 10 11  1  0  0  0
 10 20  1  0  0  0
 11 12  2  0  0  0
 12 13  2  0  0  0
 13 14  1  0  0  0
 13 20  2  0  0  0
 14 15  2  0  0  0
 14 16  1  0  0  0
 16 17  1  0  0  0
 16 21  1  0  0  0
 17 18  1  0  0  0
 17 19  2  0  0  0
 18 22  1  0  0  0
 18 23  1  0  0  0
 19 20  2  0  0  0
M  END
> <minimizedAffinity>
-10.76897

$$$$
GTP


 41 43  0  0  0  0  0  0  0  0999 V2000
   -5.3219  -22.3908  -29.6970 C   0  0  0  0  0  0  0  0  0  0  0  0
   -4.8044  -22.6620  -28.4142 O   0  0  0  0  0  0  0  0  0  0  0  0
   -5.1099  -20.9126  -29.7844 C   0  0  0  0  0  0  0  0  0  0  0  0
   -6.0027  -20.2833  -30.6464 O   0  0  0  0  0  0  0  0  0  0  0  0
   -5.4591  -20.4327  -28.3920 C   0  0  0  0  0  0  0  0  0  0  0  0
   -6.7432  -19.9478  -28.3395 O   0  0  0  0  0  0  0  0  0  0  0  0
   -5.3800  -21.7041  -27.5763 C   0  0  0  0  0  0  0  0  0  0  0  0
   -6.5422  -19.5879  -30.2409 H   0  0  0  0  0  0  0  0  0  0  0  0
   -7.3434  -20.6677  -28.6289 H   0  0  0  0  0  0  0  0  0  0  0  0
   -4.4734  -21.4647  -26.4697 N   0  0  0  0  0  0  0  0  0  0  0  0
   -3.4725  -20.5670  -26.5094 C   0  0  0  0  0  0  0  0  0  0  0  0
   -2.8100  -20.5709  -25.3450 N   0  0  0  0  0  0  0  0  0  0  0  0
   -3.3844  -21.4816  -24.5346 C   0  0  0  0  0  0  0  0  0  0  0  0
   -3.1487  -21.9209  -23.2486 C   0  0  0  0  0  0  0  0  0  0  0  0
   -2.1990  -21.4210  -22.5855 O   0  0  0  0  0  0  0  0  0  0  0  0
   -3.9547  -22.8849  -22.7365 N   0  0  0  0  0  0  0  0  0  0  0  0
   -4.9680  -23.4292  -23.4224 C   0  0  0  0  0  0  0  0  0  0  0  0
   -5.7737  -24.4392  -22.8180 N   0  0  0  0  0  0  0  0  0  0  0  0
   -5.2029  -22.9959  -24.6952 N   0  0  0  0  0  0  0  0  0  0  0  0
   -4.4314  -22.0384  -25.2541 C   0  0  0  0  0  0  0  0  0  0  0  0
   -3.7250  -23.1781  -21.7518 H   0  0  0  0  0  0  0  0  0  0  0  0
   -6.3529  -24.1505  -21.9802 H   0  0  0  0  0  0  0  0  0  0  0  0
   -5.8065  -25.4222  -23.1675 H   0  0  0  0  0  0  0  0  0  0  0  0
   -4.4947  -23.1540  -30.7115 C   0  0  0  0  0  0  0  0  0  0  0  0
   -3.2881  -23.5826  -30.1768 O   0  0  0  0  0  0  0  0  0  0  0  0
   -2.9840  -25.2169  -30.5131 P   0  0  0  0  0  0  0  0  0  0  0  0
   -1.5745  -25.3032  -31.0571 O   0  0  0  0  0  0  0  0  0  0  0  0
   -4.1306  -25.6704  -31.6680 O   0  0  0  0  0  0  0  0  0  0  0  0
   -4.7651  -24.9778  -31.9069 H   0  0  0  0  0  0  0  0  0  0  0  0
   -3.0331  -26.1767  -29.1483 O   0  0  0  0  0  0  0  0  0  0  0  0
   -4.3743  -27.1747  -29.0615 P   0  0  0  0  0  0  0  0  0  0  0  0
   -4.0750  -28.4134  -29.9016 O   0  0  0  0  0  0  0  0  0  0  0  0
   -5.7883  -26.4900  -29.6124 O   0  0  0  0  0  0  0  0  0  0  0  0
   -5.6059  -25.5388  -29.8589 H   0  0  0  0  0  0  0  0  0  0  0  0
   -4.5371  -27.6905  -27.4636 O   0  0  0  0  0  0  0  0  0  0  0  0
   -5.1899  -26.5265  -26.4578 P   0  0  0  0  0  0  0  0  0  0  0  0
   -6.6810  -26.4417  -26.6948 O   0  0  0  0  0  0  0  0  0  0  0  0
   -4.5625  -24.9785  -26.7726 O   0  0  0  0  0  0  0  0  0  0  0  0
   -4.9846  -26.9186  -24.8124 O   0  0  0  0  0  0  0  0  0  0  0  0
   -4.9868  -24.6868  -27.6194 H   0  0  0  0  0  0  0  0  0  0  0  0
   -4.0222  -27.0740  -24.6371 H   0  0  0  0  0  0  0  0  0  0  0  0
 36 37  2  0  0  0
 36 38  1  0  0  0
 36 39  1  0  0  0
 36 35  1  0  0  0
 38 40  1  0  0  0
 39 41  1  0  0  0
 31 35  1  0  0  0
 31 32  2  0  0  0
 31 33  1  0  0  0
 31 30  1  0  0  0
 33 34  1  0  0  0
 26 30  1  0  0  0
 26 27  2  0  0  0
 26 28  1  0  0  0
 26 25  1  0  0  0
 28 29  1  0  0  0
 25 24  1  0  0  0
 24  1  1  0  0  0
  1  2  1  0  0  0
  1  3  1  0  0  0
  2  7  1  0  0  0
  3  4  1  0  0  0
  3  5  1  0  0  0
  4  8  1  0  0  0
  5  6  1  0  0  0
  5  7  1  0  0  0
  6  9  1  0  0  0
  7 10  1  0  0  0
 10 11  1  0  0  0
 10 20  1  0  0  0
 11 12  2  0  0  0
 12 13  2  0  0  0
 13 14  1  0  0  0
 13 20  2  0  0  0
 14 15  2  0  0  0
 14 16  1  0  0  0
 16 17  1  0  0  0
 16 21  1  0  0  0
 17 18  1  0  0  0
 17 19  2  0  0  0
 18 22  1  0  0  0
 18 23  1  0  0  0
 19 20  2  0  0  0
M  END
> <minimizedAffinity>
-10.55857

$$$$
GTP


 41 43  0  0  0  0  0  0  0  0999 V2000
   -5.7777  -22.8009  -24.8103 C   0  0  0  0  0  0  0  0  0  0  0  0
   -6.1203  -23.7504  -25.7942 O   0  0  0  0  0  0  0  0  0  0  0  0
   -5.1409  -23.6760  -23.7778 C   0  0  0  0  0  0  0  0  0  0  0  0
   -5.2190  -23.1488  -22.4923 O   0  0  0  0  0  0  0  0  0  0  0  0
   -6.0203  -24.9080  -23.7821 C   0  0  0  0  0  0  0  0  0  0  0  0
   -6.9362  -24.8701  -22.7591 O   0  0  0  0  0  0  0  0  0  0  0  0
   -6.7510  -24.7860  -25.1009 C   0  0  0  0  0  0  0  0  0  0  0  0
   -5.6666  -23.7137  -21.8446 H   0  0  0  0  0  0  0  0  0  0  0  0
   -7.4678  -24.0529  -22.8680 H   0  0  0  0  0  0  0  0  0  0  0  0
   -6.5439  -26.0182  -25.8376 N   0  0  0  0  0  0  0  0  0  0  0  0
   -5.3498  -26.4027  -26.3227 C   0  0  0  0  0  0  0  0  0  0  0  0
   -5.4709  -27.5783  -26.9535 N   0  0  0  0  0  0  0  0  0  0  0  0
   -6.7592  -27.9669  -26.8801 C   0  0  0  0  0  0  0  0  0  0  0  0
   -7.4697  -29.0596  -27.3314 C   0  0  0  0  0  0  0  0  0  0  0  0
   -6.8730  -29.9665  -27.9740 O   0  0  0  0  0  0  0  0  0  0  0  0
   -8.7990  -29.1213  -27.0656 N   0  0  0  0  0  0  0  0  0  0  0  0
   -9.4522  -28.1704  -26.3857 C   0  0  0  0  0  0  0  0  0  0  0  0
  -10.8516  -28.3037  -26.1440 N   0  0  0  0  0  0  0  0  0  0  0  0
   -8.7508  -27.0883  -25.9382 N   0  0  0  0  0  0  0  0  0  0  0  0
   -7.4257  -26.9760  -26.1746 C   0  0  0  0  0  0  0  0  0  0  0  0
   -9.2858  -29.9784  -27.4356 H   0  0  0  0  0  0  0  0  0  0  0  0
  -11.1551  -29.1072  -25.5250 H   0  0  0  0  0  0  0  0  0  0  0  0
  -11.5607  -27.6527  -26.5475 H   0  0  0  0  0  0  0  0  0  0  0  0
   -4.7970  -21.8203  -25.4209 C   0  0  0  0  0  0  0  0  0  0  0  0
   -5.4333  -20.6839  -25.8996 O   0  0  0  0  0  0  0  0  0  0  0  0
   -5.6536  -20.7343  -27.5805 P   0  0  0  0  0  0  0  0  0  0  0  0
   -6.0010  -19.3300  -28.0248 O   0  0  0  0  0  0  0  0  0  0  0  0
   -6.9295  -21.8095  -27.8455 O   0  0  0  0  0  0  0  0  0  0  0  0
   -7.2810  -22.2304  -27.0464 H   0  0  0  0  0  0  0  0  0  0  0  0
   -4.2664  -21.1696  -28.4005 O   0  0  0  0  0  0  0  0  0  0  0  0
   -4.5084  -22.3204  -29.5919 P   0  0  0  0  0  0  0  0  0  0  0  0
   -3.3333  -22.2258  -30.5614 O   0  0  0  0  0  0  0  0  0  0  0  0
   -5.9217  -22.1434  -30.4538 O   0  0  0  0  0  0  0  0  0  0  0  0
   -6.4398  -21.3838  -30.0622 H   0  0  0  0  0  0  0  0  0  0  0  0
   -4.4298  -23.8427  -28.8692 O   0  0  0  0  0  0  0  0  0  0  0  0
   -4.1700  -25.0795  -29.9625 P   0  0  0  0  0  0  0  0  0  0  0  0
   -2.7772  -25.6347  -29.7661 O   0  0  0  0  0  0  0  0  0  0  0  0
   -4.2528  -24.5427  -31.5731 O   0  0  0  0  0  0  0  0  0  0  0  0
   -5.2457  -26.3789  -29.7217 O   0  0  0  0  0  0  0  0  0  0  0  0
   -3.4138  -24.0387  -31.7289 H   0  0  0  0  0  0  0  0  0  0  0  0
   -6.1745  -26.0362  -29.7511 H   0  0  0  0  0  0  0  0  0  0  0  0
 36 37  2  0  0  0
 36 38  1  0  0  0
 36 39  1  0  0  0
 36 35  1  0  0  0
 38 40  1  0  0  0
 39 41  1  0  0  0
 31 35  1  0  0  0
 31 32  2  0  0  0
 31 33  1  0  0  0
 31 30  1  0  0  0
 33 34  1  0  0  0
 26 30  1  0  0  0
 26 27  2  0  0  0
 26 28  1  0  0  0
 26 25  1  0  0  0
 28 29  1  0  0  0
 25 24  1  0  0  0
 24  1  1  0  0  0
  1  2  1  0  0  0
  1  3  1  0  0  0
  2  7  1  0  0  0
  3  4  1  0  0  0
  3  5  1  0  0  0
  4  8  1  0  0  0
  5  6  1  0  0  0
  5  7  1  0  0  0
  6  9  1  0  0  0
  7 10  1  0  0  0
 10 11  1  0  0  0
 10 20  1  0  0  0
 11 12  2  0  0  0
 12 13  2  0  0  0
 13 14  1  0  0  0
 13 20  2  0  0  0
 14 15  2  0  0  0
 14 16  1  0  0  0
 16 17  1  0  0  0
 16 21  1  0  0  0
 17 18  1  0  0  0
 17 19  2  0  0  0
 18 22  1  0  0  0
 18 23  1  0  0  0
 19 20  2  0  0  0
M  END
> <minimizedAffinity>
-10.42993

$$$$
GTP


 41 43  0  0  0  0  0  0  0  0999 V2000
   -5.3156  -21.8905  -28.1579 C   0  0  0  0  0  0  0  0  0  0  0  0
   -4.4685  -22.3766  -27.1416 O   0  0  0  0  0  0  0  0  0  0  0  0
   -5.2073  -20.4148  -27.9390 C   0  0  0  0  0  0  0  0  0  0  0  0
   -6.3243  -19.7138  -28.3832 O   0  0  0  0  0  0  0  0  0  0  0  0
   -5.2043  -20.2906  -26.4305 C   0  0  0  0  0  0  0  0  0  0  0  0
   -6.4526  -19.9716  -25.9542 O   0  0  0  0  0  0  0  0  0  0  0  0
   -4.8521  -21.6928  -25.9857 C   0  0  0  0  0  0  0  0  0  0  0  0
   -6.7730  -19.1864  -27.7053 H   0  0  0  0  0  0  0  0  0  0  0  0
   -7.0711  -20.6720  -26.2526 H   0  0  0  0  0  0  0  0  0  0  0  0
   -3.7010  -21.6029  -25.1077 N   0  0  0  0  0  0  0  0  0  0  0  0
   -2.6820  -20.7471  -25.3031 C   0  0  0  0  0  0  0  0  0  0  0  0
   -1.7699  -20.8950  -24.3331 N   0  0  0  0  0  0  0  0  0  0  0  0
   -2.1976  -21.8587  -23.4938 C   0  0  0  0  0  0  0  0  0  0  0  0
   -1.6992  -22.4344  -22.3437 C   0  0  0  0  0  0  0  0  0  0  0  0
   -0.5924  -22.0427  -21.8821 O   0  0  0  0  0  0  0  0  0  0  0  0
   -2.4241  -23.4117  -21.7431 N   0  0  0  0  0  0  0  0  0  0  0  0
   -3.6006  -23.8427  -22.2157 C   0  0  0  0  0  0  0  0  0  0  0  0
   -4.3068  -24.8749  -21.5299 N   0  0  0  0  0  0  0  0  0  0  0  0
   -4.0956  -23.2742  -23.3536 N   0  0  0  0  0  0  0  0  0  0  0  0
   -3.4154  -22.2974  -23.9921 C   0  0  0  0  0  0  0  0  0  0  0  0
   -1.9919  -23.8116  -20.8703 H   0  0  0  0  0  0  0  0  0  0  0  0
   -4.6574  -24.6488  -20.5569 H   0  0  0  0  0  0  0  0  0  0  0  0
   -4.4813  -25.8156  -21.9473 H   0  0  0  0  0  0  0  0  0  0  0  0
   -4.7452  -22.3197  -29.4944 C   0  0  0  0  0  0  0  0  0  0  0  0
   -4.9919  -23.6602  -29.7549 O   0  0  0  0  0  0  0  0  0  0  0  0
   -3.5995  -24.4778  -30.2736 P   0  0  0  0  0  0  0  0  0  0  0  0
   -2.4585  -23.4847  -30.2271 O   0  0  0  0  0  0  0  0  0  0  0  0
   -3.9247  -24.9856  -31.8517 O   0  0  0  0  0  0  0  0  0  0  0  0
   -4.8153  -24.7772  -32.1721 H   0  0  0  0  0  0  0  0  0  0  0  0
   -3.1798  -25.7409  -29.2663 O   0  0  0  0  0  0  0  0  0  0  0  0
   -4.3059  -26.9785  -29.2153 P   0  0  0  0  0  0  0  0  0  0  0  0
   -3.7764  -28.1121  -30.0896 O   0  0  0  0  0  0  0  0  0  0  0  0
   -5.8249  -26.5601  -29.7530 O   0  0  0  0  0  0  0  0  0  0  0  0
   -5.8276  -25.5847  -29.9707 H   0  0  0  0  0  0  0  0  0  0  0  0
   -4.3662  -27.5629  -27.6339 O   0  0  0  0  0  0  0  0  0  0  0  0
   -5.3661  -26.6684  -26.6376 P   0  0  0  0  0  0  0  0  0  0  0  0
   -6.8055  -27.0454  -26.9068 O   0  0  0  0  0  0  0  0  0  0  0  0
   -5.2414  -24.9989  -26.9319 O   0  0  0  0  0  0  0  0  0  0  0  0
   -5.0817  -26.9958  -24.9898 O   0  0  0  0  0  0  0  0  0  0  0  0
   -5.7185  -24.8432  -27.7864 H   0  0  0  0  0  0  0  0  0  0  0  0
   -4.1220  -26.8485  -24.7942 H   0  0  0  0  0  0  0  0  0  0  0  0
 36 37  2  0  0  0
 36 38  1  0  0  0
 36 39  1  0  0  0
 36 35  1  0  0  0
 38 40  1  0  0  0
 39 41  1  0  0  0
 31 35  1  0  0  0
 31 32  2  0  0  0
 31 33  1  0  0  0
 31 30  1  0  0  0
 33 34  1  0  0  0
 26 30  1  0  0  0
 26 27  2  0  0  0
 26 28  1  0  0  0
 26 25  1  0  0  0
 28 29  1  0  0  0
 25 24  1  0  0  0
 24  1  1  0  0  0
  1  2  1  0  0  0
  1  3  1  0  0  0
  2  7  1  0  0  0
  3  4  1  0  0  0
  3  5  1  0  0  0
  4  8  1  0  0  0
  5  6  1  0  0  0
  5  7  1  0  0  0
  6  9  1  0  0  0
  7 10  1  0  0  0
 10 11  1  0  0  0
 10 20  1  0  0  0
 11 12  2  0  0  0
 12 13  2  0  0  0
 13 14  1  0  0  0
 13 20  2  0  0  0
 14 15  2  0  0  0
 14 16  1  0  0  0
 16 17  1  0  0  0
 16 21  1  0  0  0
 17 18  1  0  0  0
 17 19  2  0  0  0
 18 22  1  0  0  0
 18 23  1  0  0  0
 19 20  2  0  0  0
M  END
> <minimizedAffinity>
-10.30590

$$$$
GTP


 41 43  0  0  0  0  0  0  0  0999 V2000
   -7.3087  -26.2175  -23.2522 C   0  0  0  0  0  0  0  0  0  0  0  0
   -8.3853  -26.7730  -23.9728 O   0  0  0  0  0  0  0  0  0  0  0  0
   -6.4021  -27.4014  -23.1344 C   0  0  0  0  0  0  0  0  0  0  0  0
   -5.5616  -27.3371  -22.0273 O   0  0  0  0  0  0  0  0  0  0  0  0
   -7.3605  -28.5429  -22.8701 C   0  0  0  0  0  0  0  0  0  0  0  0
   -7.4304  -28.8346  -21.5297 O   0  0  0  0  0  0  0  0  0  0  0  0
   -8.6866  -27.9696  -23.3182 C   0  0  0  0  0  0  0  0  0  0  0  0
   -5.6418  -28.0787  -21.4086 H   0  0  0  0  0  0  0  0  0  0  0  0
   -7.7115  -28.0186  -21.0635 H   0  0  0  0  0  0  0  0  0  0  0  0
   -9.2605  -28.8849  -24.2860 N   0  0  0  0  0  0  0  0  0  0  0  0
  -10.3697  -29.6101  -24.0567 C   0  0  0  0  0  0  0  0  0  0  0  0
  -10.6547  -30.3595  -25.1300 N   0  0  0  0  0  0  0  0  0  0  0  0
   -9.7209  -30.1215  -26.0720 C   0  0  0  0  0  0  0  0  0  0  0  0
   -9.4932  -30.5852  -27.3509 C   0  0  0  0  0  0  0  0  0  0  0  0
  -10.2815  -31.4319  -27.8543 O   0  0  0  0  0  0  0  0  0  0  0  0
   -8.4187  -30.1097  -28.0296 N   0  0  0  0  0  0  0  0  0  0  0  0
   -7.5695  -29.2114  -27.5147 C   0  0  0  0  0  0  0  0  0  0  0  0
   -6.4606  -28.7570  -28.2883 N   0  0  0  0  0  0  0  0  0  0  0  0
   -7.7930  -28.7511  -26.2493 N   0  0  0  0  0  0  0  0  0  0  0  0
   -8.8476  -29.1907  -25.5289 C   0  0  0  0  0  0  0  0  0  0  0  0
   -8.2983  -30.5010  -28.9995 H   0  0  0  0  0  0  0  0  0  0  0  0
   -6.6831  -28.2058  -29.1644 H   0  0  0  0  0  0  0  0  0  0  0  0
   -5.4691  -28.9469  -28.0231 H   0  0  0  0  0  0  0  0  0  0  0  0
   -6.7036  -25.1073  -24.0872 C   0  0  0  0  0  0  0  0  0  0  0  0
   -5.3654  -25.3432  -24.3684 O   0  0  0  0  0  0  0  0  0  0  0  0
   -4.7471  -24.2451  -25.5035 P   0  0  0  0  0  0  0  0  0  0  0  0
   -4.0967  -23.1218  -24.7255 O   0  0  0  0  0  0  0  0  0  0  0  0
   -6.0778  -23.7036  -26.3923 O   0  0  0  0  0  0  0  0  0  0  0  0
   -6.9226  -24.1138  -26.1530 H   0  0  0  0  0  0  0  0  0  0  0  0
   -3.5598  -24.9135  -26.4678 O   0  0  0  0  0  0  0  0  0  0  0  0
   -4.0381  -26.2947  -27.2837 P   0  0  0  0  0  0  0  0  0  0  0  0
   -5.0130  -25.8635  -28.3761 O   0  0  0  0  0  0  0  0  0  0  0  0
   -4.7811  -27.4423  -26.3336 O   0  0  0  0  0  0  0  0  0  0  0  0
   -4.7650  -27.1285  -25.3849 H   0  0  0  0  0  0  0  0  0  0  0  0
   -2.6840  -26.9377  -28.0574 O   0  0  0  0  0  0  0  0  0  0  0  0
   -3.0332  -28.2763  -28.9949 P   0  0  0  0  0  0  0  0  0  0  0  0
   -3.4704  -29.4129  -28.0985 O   0  0  0  0  0  0  0  0  0  0  0  0
   -1.6756  -28.8331  -29.8528 O   0  0  0  0  0  0  0  0  0  0  0  0
   -4.3246  -27.9836  -30.0673 O   0  0  0  0  0  0  0  0  0  0  0  0
   -1.1003  -29.2787  -29.1800 H   0  0  0  0  0  0  0  0  0  0  0  0
   -4.1141  -27.1839  -30.6124 H   0  0  0  0  0  0  0  0  0  0  0  0
 36 37  2  0  0  0
 36 38  1  0  0  0
 36 39  1  0  0  0
 36 35  1  0  0  0
 38 40  1  0  0  0
 39 41  1  0  0  0
 31 35  1  0  0  0
 31 32  2  0  0  0
 31 33  1  0  0  0
 31 30  1  0  0  0
 33 34  1  0  0  0
 26 30  1  0  0  0
 26 27  2  0  0  0
 26 28  1  0  0  0
 26 25  1  0  0  0
 28 29  1  0  0  0
 25 24  1  0  0  0
 24  1  1  0  0  0
  1  2  1  0  0  0
  1  3  1  0  0  0
  2  7  1  0  0  0
  3  4  1  0  0  0
  3  5  1  0  0  0
  4  8  1  0  0  0
  5  6  1  0  0  0
  5  7  1  0  0  0
  6  9  1  0  0  0
  7 10  1  0  0  0
 10 11  1  0  0  0
 10 20  1  0  0  0
 11 12  2  0  0  0
 12 13  2  0  0  0
 13 14  1  0  0  0
 13 20  2  0  0  0
 14 15  2  0  0  0
 14 16  1  0  0  0
 16 17  1  0  0  0
 16 21  1  0  0  0
 17 18  1  0  0  0
 17 19  2  0  0  0
 18 22  1  0  0  0
 18 23  1  0  0  0
 19 20  2  0  0  0
M  END
> <minimizedAffinity>
-10.27904

$$$$
GTP


 41 43  0  0  0  0  0  0  0  0999 V2000
   -5.7663  -22.6378  -25.2232 C   0  0  0  0  0  0  0  0  0  0  0  0
   -5.2606  -22.7967  -26.5293 O   0  0  0  0  0  0  0  0  0  0  0  0
   -6.7011  -21.4861  -25.4166 C   0  0  0  0  0  0  0  0  0  0  0  0
   -6.9058  -20.7484  -24.2546 O   0  0  0  0  0  0  0  0  0  0  0  0
   -5.9401  -20.5811  -26.3617 C   0  0  0  0  0  0  0  0  0  0  0  0
   -5.3060  -19.5703  -25.6813 O   0  0  0  0  0  0  0  0  0  0  0  0
   -4.8985  -21.5122  -26.9415 C   0  0  0  0  0  0  0  0  0  0  0  0
   -6.6750  -19.8095  -24.3197 H   0  0  0  0  0  0  0  0  0  0  0  0
   -4.7060  -19.9857  -25.0258 H   0  0  0  0  0  0  0  0  0  0  0  0
   -5.0057  -21.4517  -28.3868 N   0  0  0  0  0  0  0  0  0  0  0  0
   -5.4454  -20.3704  -29.0550 C   0  0  0  0  0  0  0  0  0  0  0  0
   -5.4331  -20.6124  -30.3726 N   0  0  0  0  0  0  0  0  0  0  0  0
   -4.9803  -21.8665  -30.5680 C   0  0  0  0  0  0  0  0  0  0  0  0
   -4.7539  -22.6540  -31.6776 C   0  0  0  0  0  0  0  0  0  0  0  0
   -4.9926  -22.1916  -32.8268 O   0  0  0  0  0  0  0  0  0  0  0  0
   -4.2776  -23.9110  -31.4923 N   0  0  0  0  0  0  0  0  0  0  0  0
   -4.0175  -24.4218  -30.2820 C   0  0  0  0  0  0  0  0  0  0  0  0
   -3.5178  -25.7526  -30.1648 N   0  0  0  0  0  0  0  0  0  0  0  0
   -4.2408  -23.6441  -29.1827 N   0  0  0  0  0  0  0  0  0  0  0  0
   -4.7142  -22.3855  -29.3095 C   0  0  0  0  0  0  0  0  0  0  0  0
   -4.1254  -24.4623  -32.3762 H   0  0  0  0  0  0  0  0  0  0  0  0
   -2.5577  -25.9398  -30.5698 H   0  0  0  0  0  0  0  0  0  0  0  0
   -4.0549  -26.5211  -29.7061 H   0  0  0  0  0  0  0  0  0  0  0  0
   -6.4910  -23.9117  -24.8386 C   0  0  0  0  0  0  0  0  0  0  0  0
   -6.5918  -24.7914  -25.9070 O   0  0  0  0  0  0  0  0  0  0  0  0
   -5.4597  -26.0504  -25.8078 P   0  0  0  0  0  0  0  0  0  0  0  0
   -4.8350  -25.9779  -24.4313 O   0  0  0  0  0  0  0  0  0  0  0  0
   -4.3289  -25.7497  -27.0263 O   0  0  0  0  0  0  0  0  0  0  0  0
   -4.5202  -24.9769  -27.5789 H   0  0  0  0  0  0  0  0  0  0  0  0
   -6.1600  -27.5598  -25.9400 O   0  0  0  0  0  0  0  0  0  0  0  0
   -6.7200  -27.9223  -27.4753 P   0  0  0  0  0  0  0  0  0  0  0  0
   -6.5065  -29.4174  -27.6966 O   0  0  0  0  0  0  0  0  0  0  0  0
   -5.9658  -27.0918  -28.7054 O   0  0  0  0  0  0  0  0  0  0  0  0
   -5.3184  -26.4458  -28.3025 H   0  0  0  0  0  0  0  0  0  0  0  0
   -8.3853  -27.6535  -27.4992 O   0  0  0  0  0  0  0  0  0  0  0  0
   -9.2208  -28.5907  -26.3964 P   0  0  0  0  0  0  0  0  0  0  0  0
   -9.8426  -29.7686  -27.1125 O   0  0  0  0  0  0  0  0  0  0  0  0
  -10.4988  -27.7402  -25.6667 O   0  0  0  0  0  0  0  0  0  0  0  0
   -8.1921  -29.2398  -25.2033 O   0  0  0  0  0  0  0  0  0  0  0  0
  -11.2047  -27.6751  -26.3593 H   0  0  0  0  0  0  0  0  0  0  0  0
   -7.6944  -28.5001  -24.7716 H   0  0  0  0  0  0  0  0  0  0  0  0
 36 37  2  0  0  0
 36 38  1  0  0  0
 36 39  1  0  0  0
 36 35  1  0  0  0
 38 40  1  0  0  0
 39 41  1  0  0  0
 31 35  1  0  0  0
 31 32  2  0  0  0
 31 33  1  0  0  0
 31 30  1  0  0  0
 33 34  1  0  0  0
 26 30  1  0  0  0
 26 27  2  0  0  0
 26 28  1  0  0  0
 26 25  1  0  0  0
 28 29  1  0  0  0
 25 24  1  0  0  0
 24  1  1  0  0  0
  1  2  1  0  0  0
  1  3  1  0  0  0
  2  7  1  0  0  0
  3  4  1  0  0  0
  3  5  1  0  0  0
  4  8  1  0  0  0
  5  6  1  0  0  0
  5  7  1  0  0  0
  6  9  1  0  0  0
  7 10  1  0  0  0
 10 11  1  0  0  0
 10 20  1  0  0  0
 11 12  2  0  0  0
 12 13  2  0  0  0
 13 14  1  0  0  0
 13 20  2  0  0  0
 14 15  2  0  0  0
 14 16  1  0  0  0
 16 17  1  0  0  0
 16 21  1  0  0  0
 17 18  1  0  0  0
 17 19  2  0  0  0
 18 22  1  0  0  0
 18 23  1  0  0  0
 19 20  2  0  0  0
M  END
> <minimizedAffinity>
-10.27792

$$$$
GTP


 41 43  0  0  0  0  0  0  0  0999 V2000
   -3.3078  -25.4572  -29.1113 C   0  0  0  0  0  0  0  0  0  0  0  0
   -3.7866  -24.3615  -28.3648 O   0  0  0  0  0  0  0  0  0  0  0  0
   -2.5873  -24.7558  -30.2188 C   0  0  0  0  0  0  0  0  0  0  0  0
   -2.5059  -25.5139  -31.3828 O   0  0  0  0  0  0  0  0  0  0  0  0
   -3.4991  -23.5905  -30.5377 C   0  0  0  0  0  0  0  0  0  0  0  0
   -4.2941  -23.8626  -31.6243 O   0  0  0  0  0  0  0  0  0  0  0  0
   -4.3678  -23.5046  -29.3023 C   0  0  0  0  0  0  0  0  0  0  0  0
   -2.8959  -25.1014  -32.1682 H   0  0  0  0  0  0  0  0  0  0  0  0
   -4.8092  -24.6717  -31.4189 H   0  0  0  0  0  0  0  0  0  0  0  0
   -4.2816  -22.1490  -28.7936 N   0  0  0  0  0  0  0  0  0  0  0  0
   -3.5328  -21.1876  -29.3627 C   0  0  0  0  0  0  0  0  0  0  0  0
   -3.6543  -20.0462  -28.6720 N   0  0  0  0  0  0  0  0  0  0  0  0
   -4.4922  -20.2639  -27.6393 C   0  0  0  0  0  0  0  0  0  0  0  0
   -4.9873  -19.4881  -26.6119 C   0  0  0  0  0  0  0  0  0  0  0  0
   -4.6400  -18.2785  -26.5237 O   0  0  0  0  0  0  0  0  0  0  0  0
   -5.8392  -20.0589  -25.7232 N   0  0  0  0  0  0  0  0  0  0  0  0
   -6.2210  -21.3403  -25.7978 C   0  0  0  0  0  0  0  0  0  0  0  0
   -7.1205  -21.8714  -24.8266 N   0  0  0  0  0  0  0  0  0  0  0  0
   -5.7322  -22.1096  -26.8137 N   0  0  0  0  0  0  0  0  0  0  0  0
   -4.8811  -21.5925  -27.7262 C   0  0  0  0  0  0  0  0  0  0  0  0
   -6.1825  -19.4167  -24.9628 H   0  0  0  0  0  0  0  0  0  0  0  0
   -8.0991  -21.4678  -24.8105 H   0  0  0  0  0  0  0  0  0  0  0  0
   -6.8492  -22.6220  -24.1538 H   0  0  0  0  0  0  0  0  0  0  0  0
   -2.3714  -26.2575  -28.2288 C   0  0  0  0  0  0  0  0  0  0  0  0
   -2.0825  -27.4999  -28.7751 O   0  0  0  0  0  0  0  0  0  0  0  0
   -3.3900  -28.5729  -28.6510 P   0  0  0  0  0  0  0  0  0  0  0  0
   -2.8121  -29.9508  -28.4111 O   0  0  0  0  0  0  0  0  0  0  0  0
   -4.2019  -28.4823  -30.1298 O   0  0  0  0  0  0  0  0  0  0  0  0
   -3.8366  -27.8402  -30.7571 H   0  0  0  0  0  0  0  0  0  0  0  0
   -4.3821  -28.2339  -27.3521 O   0  0  0  0  0  0  0  0  0  0  0  0
   -6.0085  -28.1448  -27.7382 P   0  0  0  0  0  0  0  0  0  0  0  0
   -6.4425