GTP


 41 43  0  0  0  0  0  0  0  0999 V2000
    4.6351  -28.9612  -26.8115 C   0  0  0  0  0  0  0  0  0  0  0  0
    4.6573  -28.9960  -25.4025 O   0  0  0  0  0  0  0  0  0  0  0  0
    5.9856  -29.5185  -27.1326 C   0  0  0  0  0  0  0  0  0  0  0  0
    6.4736  -29.0909  -28.3636 O   0  0  0  0  0  0  0  0  0  0  0  0
    6.8759  -28.8870  -26.0839 C   0  0  0  0  0  0  0  0  0  0  0  0
    7.5350  -27.7906  -26.5844 O   0  0  0  0  0  0  0  0  0  0  0  0
    5.8812  -28.4286  -25.0406 C   0  0  0  0  0  0  0  0  0  0  0  0
    7.3237  -28.6270  -28.3283 H   0  0  0  0  0  0  0  0  0  0  0  0
    6.8567  -27.1578  -26.9035 H   0  0  0  0  0  0  0  0  0  0  0  0
    6.2844  -28.9924  -23.7664 N   0  0  0  0  0  0  0  0  0  0  0  0
    5.8787  -30.1961  -23.3243 C   0  0  0  0  0  0  0  0  0  0  0  0
    6.4133  -30.4440  -22.1212 N   0  0  0  0  0  0  0  0  0  0  0  0
    7.1774  -29.3901  -21.7727 C   0  0  0  0  0  0  0  0  0  0  0  0
    7.9557  -29.0763  -20.6780 C   0  0  0  0  0  0  0  0  0  0  0  0
    8.0434  -29.8956  -19.7227 O   0  0  0  0  0  0  0  0  0  0  0  0
    8.6063  -27.8856  -20.6670 N   0  0  0  0  0  0  0  0  0  0  0  0
    8.5272  -27.0015  -21.6697 C   0  0  0  0  0  0  0  0  0  0  0  0
    9.2400  -25.7687  -21.5880 N   0  0  0  0  0  0  0  0  0  0  0  0
    7.7576  -27.3101  -22.7539 N   0  0  0  0  0  0  0  0  0  0  0  0
    7.0885  -28.4817  -22.8171 C   0  0  0  0  0  0  0  0  0  0  0  0
    9.1836  -27.7036  -19.8056 H   0  0  0  0  0  0  0  0  0  0  0  0
   10.2970  -25.8276  -21.5789 H   0  0  0  0  0  0  0  0  0  0  0  0
    8.7637  -24.8412  -21.5385 H   0  0  0  0  0  0  0  0  0  0  0  0
    3.5114  -29.8587  -27.2889 C   0  0  0  0  0  0  0  0  0  0  0  0
    3.3956  -29.8502  -28.6716 O   0  0  0  0  0  0  0  0  0  0  0  0
    2.8766  -28.3469  -29.2608 P   0  0  0  0  0  0  0  0  0  0  0  0
    1.6198  -28.5958  -30.0663 O   0  0  0  0  0  0  0  0  0  0  0  0
    4.1370  -27.7711  -30.2272 O   0  0  0  0  0  0  0  0  0  0  0  0
    4.9223  -28.3383  -30.2542 H   0  0  0  0  0  0  0  0  0  0  0  0
    2.4647  -27.2833  -28.0420 O   0  0  0  0  0  0  0  0  0  0  0  0
    2.1662  -25.7223  -28.5678 P   0  0  0  0  0  0  0  0  0  0  0  0
    1.6373  -24.9330  -27.3733 O   0  0  0  0  0  0  0  0  0  0  0  0
    1.0642  -25.6051  -29.8101 O   0  0  0  0  0  0  0  0  0  0  0  0
    0.7970  -26.5277  -30.0862 H   0  0  0  0  0  0  0  0  0  0  0  0
    3.6410  -25.0285  -29.0030 O   0  0  0  0  0  0  0  0  0  0  0  0
    4.7913  -25.1104  -27.7935 P   0  0  0  0  0  0  0  0  0  0  0  0
    5.8374  -26.1359  -28.1685 O   0  0  0  0  0  0  0  0  0  0  0  0
    4.1310  -25.6146  -26.3106 O   0  0  0  0  0  0  0  0  0  0  0  0
    5.6144  -23.6317  -27.5960 O   0  0  0  0  0  0  0  0  0  0  0  0
    3.9629  -26.5862  -26.4109 H   0  0  0  0  0  0  0  0  0  0  0  0
    4.9507  -22.9133  -27.4395 H   0  0  0  0  0  0  0  0  0  0  0  0
 36 37  2  0  0  0
 36 38  1  0  0  0
 36 39  1  0  0  0
 36 35  1  0  0  0
 38 40  1  0  0  0
 39 41  1  0  0  0
 31 35  1  0  0  0
 31 32  2  0  0  0
 31 33  1  0  0  0
 31 30  1  0  0  0
 33 34  1  0  0  0
 26 30  1  0  0  0
 26 27  2  0  0  0
 26 28  1  0  0  0
 26 25  1  0  0  0
 28 29  1  0  0  0
 25 24  1  0  0  0
 24  1  1  0  0  0
  1  2  1  0  0  0
  1  3  1  0  0  0
  2  7  1  0  0  0
  3  4  1  0  0  0
  3  5  1  0  0  0
  4  8  1  0  0  0
  5  6  1  0  0  0
  5  7  1  0  0  0
  6  9  1  0  0  0
  7 10  1  0  0  0
 10 11  1  0  0  0
 10 20  1  0  0  0
 11 12  2  0  0  0
 12 13  2  0  0  0
 13 14  1  0  0  0
 13 20  2  0  0  0
 14 15  2  0  0  0
 14 16  1  0  0  0
 16 17  1  0  0  0
 16 21  1  0  0  0
 17 18  1  0  0  0
 17 19  2  0  0  0
 18 22  1  0  0  0
 18 23  1  0  0  0
 19 20  2  0  0  0
M  END
> <minimizedAffinity>
-10.41465

$$$$
GTP


 41 43  0  0  0  0  0  0  0  0999 V2000
    3.4943  -31.0975  -27.7941 C   0  0  0  0  0  0  0  0  0  0  0  0
    4.1292  -30.2180  -26.8940 O   0  0  0  0  0  0  0  0  0  0  0  0
    3.6105  -32.3940  -27.0572 C   0  0  0  0  0  0  0  0  0  0  0  0
    3.6004  -33.5025  -27.8982 O   0  0  0  0  0  0  0  0  0  0  0  0
    5.0013  -32.3281  -26.4635 C   0  0  0  0  0  0  0  0  0  0  0  0
    5.9042  -33.0228  -27.2311 O   0  0  0  0  0  0  0  0  0  0  0  0
    5.3228  -30.8521  -26.5415 C   0  0  0  0  0  0  0  0  0  0  0  0
    4.3811  -34.0730  -27.8333 H   0  0  0  0  0  0  0  0  0  0  0  0
    5.8835  -32.6380  -28.1332 H   0  0  0  0  0  0  0  0  0  0  0  0
    5.6970  -30.4095  -25.2119 N   0  0  0  0  0  0  0  0  0  0  0  0
    5.4664  -31.1261  -24.0974 C   0  0  0  0  0  0  0  0  0  0  0  0
    5.9215  -30.4626  -23.0263 N   0  0  0  0  0  0  0  0  0  0  0  0
    6.4558  -29.2986  -23.4454 C   0  0  0  0  0  0  0  0  0  0  0  0
    7.0627  -28.2293  -22.8202 C   0  0  0  0  0  0  0  0  0  0  0  0
    7.2016  -28.2397  -21.5664 O   0  0  0  0  0  0  0  0  0  0  0  0
    7.4935  -27.1934  -23.5835 N   0  0  0  0  0  0  0  0  0  0  0  0
    7.3563  -27.1616  -24.9152 C   0  0  0  0  0  0  0  0  0  0  0  0
    7.8342  -26.0377  -25.6521 N   0  0  0  0  0  0  0  0  0  0  0  0
    6.7561  -28.2187  -25.5357 N   0  0  0  0  0  0  0  0  0  0  0  0
    6.3086  -29.2762  -24.8244 C   0  0  0  0  0  0  0  0  0  0  0  0
    7.9478  -26.4080  -23.0494 H   0  0  0  0  0  0  0  0  0  0  0  0
    8.8800  -25.8727  -25.6471 H   0  0  0  0  0  0  0  0  0  0  0  0
    7.2021  -25.3951  -26.1784 H   0  0  0  0  0  0  0  0  0  0  0  0
    2.0551  -30.6515  -27.9551 C   0  0  0  0  0  0  0  0  0  0  0  0
    1.7880  -29.4975  -27.2324 O   0  0  0  0  0  0  0  0  0  0  0  0
    1.6156  -28.1405  -28.2350 P   0  0  0  0  0  0  0  0  0  0  0  0
    0.1326  -27.9414  -28.4613 O   0  0  0  0  0  0  0  0  0  0  0  0
    2.4230  -28.5220  -29.6691 O   0  0  0  0  0  0  0  0  0  0  0  0
    2.8633  -29.3854  -29.6722 H   0  0  0  0  0  0  0  0  0  0  0  0
    2.1873  -26.7399  -27.5294 O   0  0  0  0  0  0  0  0  0  0  0  0
    2.2265  -25.4212  -28.5599 P   0  0  0  0  0  0  0  0  0  0  0  0
    1.5829  -24.2491  -27.8238 O   0  0  0  0  0  0  0  0  0  0  0  0
    1.4283  -25.6424  -30.0040 O   0  0  0  0  0  0  0  0  0  0  0  0
    1.0948  -26.5838  -30.0420 H   0  0  0  0  0  0  0  0  0  0  0  0
    3.8421  -25.0120  -28.8208 O   0  0  0  0  0  0  0  0  0  0  0  0
    4.8972  -25.8025  -27.7938 P   0  0  0  0  0  0  0  0  0  0  0  0
    6.2878  -25.2369  -27.9752 O   0  0  0  0  0  0  0  0  0  0  0  0
    5.0037  -27.4642  -28.1351 O   0  0  0  0  0  0  0  0  0  0  0  0
    4.4898  -25.5654  -26.1564 O   0  0  0  0  0  0  0  0  0  0  0  0
    5.5396  -27.5312  -28.9660 H   0  0  0  0  0  0  0  0  0  0  0  0
    3.5484  -25.8398  -26.0168 H   0  0  0  0  0  0  0  0  0  0  0  0
 36 37  2  0  0  0
 36 38  1  0  0  0
 36 39  1  0  0  0
 36 35  1  0  0  0
 38 40  1  0  0  0
 39 41  1  0  0  0
 31 35  1  0  0  0
 31 32  2  0  0  0
 31 33  1  0  0  0
 31 30  1  0  0  0
 33 34  1  0  0  0
 26 30  1  0  0  0
 26 27  2  0  0  0
 26 28  1  0  0  0
 26 25  1  0  0  0
 28 29  1  0  0  0
 25 24  1  0  0  0
 24  1  1  0  0  0
  1  2  1  0  0  0
  1  3  1  0  0  0
  2  7  1  0  0  0
  3  4  1  0  0  0
  3  5  1  0  0  0
  4  8  1  0  0  0
  5  6  1  0  0  0
  5  7  1  0  0  0
  6  9  1  0  0  0
  7 10  1  0  0  0
 10 11  1  0  0  0
 10 20  1  0  0  0
 11 12  2  0  0  0
 12 13  2  0  0  0
 13 14  1  0  0  0
 13 20  2  0  0  0
 14 15  2  0  0  0
 14 16  1  0  0  0
 16 17  1  0  0  0
 16 21  1  0  0  0
 17 18  1  0  0  0
 17 19  2  0  0  0
 18 22  1  0  0  0
 18 23  1  0  0  0
 19 20  2  0  0  0
M  END
> <minimizedAffinity>
-10.08837

$$$$
GTP


 41 43  0  0  0  0  0  0  0  0999 V2000
    7.7351  -23.5452  -24.8263 C   0  0  0  0  0  0  0  0  0  0  0  0
    7.2908  -23.6068  -23.4900 O   0  0  0  0  0  0  0  0  0  0  0  0
    9.1569  -23.1213  -24.6357 C   0  0  0  0  0  0  0  0  0  0  0  0
    9.6750  -22.4402  -25.7329 O   0  0  0  0  0  0  0  0  0  0  0  0
    9.0658  -22.1077  -23.5152 C   0  0  0  0  0  0  0  0  0  0  0  0
    9.0579  -20.8240  -24.0039 O   0  0  0  0  0  0  0  0  0  0  0  0
    7.7143  -22.4104  -22.9068 C   0  0  0  0  0  0  0  0  0  0  0  0
   10.0012  -21.5475  -25.5441 H   0  0  0  0  0  0  0  0  0  0  0  0
    8.2967  -20.7456  -24.6176 H   0  0  0  0  0  0  0  0  0  0  0  0
    7.9088  -22.6403  -21.4880 N   0  0  0  0  0  0  0  0  0  0  0  0
    8.9987  -23.2379  -20.9742 C   0  0  0  0  0  0  0  0  0  0  0  0
    8.8937  -23.3089  -19.6405 N   0  0  0  0  0  0  0  0  0  0  0  0
    7.7216  -22.7514  -19.2782 C   0  0  0  0  0  0  0  0  0  0  0  0
    7.0791  -22.5391  -18.0762 C   0  0  0  0  0  0  0  0  0  0  0  0
    7.6271  -22.9152  -17.0039 O   0  0  0  0  0  0  0  0  0  0  0  0
    5.8682  -21.9270  -18.0895 N   0  0  0  0  0  0  0  0  0  0  0  0
    5.2685  -21.5200  -19.2156 C   0  0  0  0  0  0  0  0  0  0  0  0
    3.9939  -20.8829  -19.1515 N   0  0  0  0  0  0  0  0  0  0  0  0
    5.9026  -21.7291  -20.4060 N   0  0  0  0  0  0  0  0  0  0  0  0
    7.1096  -22.3337  -20.4507 C   0  0  0  0  0  0  0  0  0  0  0  0
    5.4285  -21.7934  -17.1422 H   0  0  0  0  0  0  0  0  0  0  0  0
    3.9526  -19.9451  -18.6619 H   0  0  0  0  0  0  0  0  0  0  0  0
    3.1299  -21.3021  -19.5605 H   0  0  0  0  0  0  0  0  0  0  0  0
    7.6213  -24.9317  -25.4268 C   0  0  0  0  0  0  0  0  0  0  0  0
    7.3830  -25.8962  -24.4581 O   0  0  0  0  0  0  0  0  0  0  0  0
    6.9965  -27.4020  -25.1362 P   0  0  0  0  0  0  0  0  0  0  0  0
    7.1466  -28.4342  -24.0397 O   0  0  0  0  0  0  0  0  0  0  0  0
    8.1105  -27.6450  -26.3828 O   0  0  0  0  0  0  0  0  0  0  0  0
    8.7268  -26.9113  -26.5281 H   0  0  0  0  0  0  0  0  0  0  0  0
    5.4149  -27.4857  -25.6632 O   0  0  0  0  0  0  0  0  0  0  0  0
    5.2538  -27.8446  -27.2903 P   0  0  0  0  0  0  0  0  0  0  0  0
    3.7796  -28.1464  -27.5461 O   0  0  0  0  0  0  0  0  0  0  0  0
    6.1580  -29.1424  -27.8097 O   0  0  0  0  0  0  0  0  0  0  0  0
    6.7141  -29.4684  -27.0459 H   0  0  0  0  0  0  0  0  0  0  0  0
    5.6323  -26.4557  -28.1699 O   0  0  0  0  0  0  0  0  0  0  0  0
    4.6114  -25.1724  -27.8483 P   0  0  0  0  0  0  0  0  0  0  0  0
    3.6402  -25.0078  -28.9956 O   0  0  0  0  0  0  0  0  0  0  0  0
    5.4510  -23.7008  -27.7118 O   0  0  0  0  0  0  0  0  0  0  0  0
    3.6698  -25.4414  -26.4539 O   0  0  0  0  0  0  0  0  0  0  0  0
    5.7030  -23.4515  -28.6373 H   0  0  0  0  0  0  0  0  0  0  0  0
    4.2719  -25.6459  -25.6945 H   0  0  0  0  0  0  0  0  0  0  0  0
 36 37  2  0  0  0
 36 38  1  0  0  0
 36 39  1  0  0  0
 36 35  1  0  0  0
 38 40  1  0  0  0
 39 41  1  0  0  0
 31 35  1  0  0  0
 31 32  2  0  0  0
 31 33  1  0  0  0
 31 30  1  0  0  0
 33 34  1  0  0  0
 26 30  1  0  0  0
 26 27  2  0  0  0
 26 28  1  0  0  0
 26 25  1  0  0  0
 28 29  1  0  0  0
 25 24  1  0  0  0
 24  1  1  0  0  0
  1  2  1  0  0  0
  1  3  1  0  0  0
  2  7  1  0  0  0
  3  4  1  0  0  0
  3  5  1  0  0  0
  4  8  1  0  0  0
  5  6  1  0  0  0
  5  7  1  0  0  0
  6  9  1  0  0  0
  7 10  1  0  0  0
 10 11  1  0  0  0
 10 20  1  0  0  0
 11 12  2  0  0  0
 12 13  2  0  0  0
 13 14  1  0  0  0
 13 20  2  0  0  0
 14 15  2  0  0  0
 14 16  1  0  0  0
 16 17  1  0  0  0
 16 21  1  0  0  0
 17 18  1  0  0  0
 17 19  2  0  0  0
 18 22  1  0  0  0
 18 23  1  0  0  0
 19 20  2  0  0  0
M  END
> <minimizedAffinity>
-10.06419

$$$$
GTP


 41 43  0  0  0  0  0  0  0  0999 V2000
    4.1998  -31.4215  -27.5158 C   0  0  0  0  0  0  0  0  0  0  0  0
    5.2652  -30.7678  -26.8643 O   0  0  0  0  0  0  0  0  0  0  0  0
    3.0783  -31.1625  -26.5605 C   0  0  0  0  0  0  0  0  0  0  0  0
    2.0752  -32.1250  -26.6229 O   0  0  0  0  0  0  0  0  0  0  0  0
    3.7355  -31.3260  -25.2068 C   0  0  0  0  0  0  0  0  0  0  0  0
    3.4990  -32.5746  -24.6855 O   0  0  0  0  0  0  0  0  0  0  0  0
    5.2062  -31.2021  -25.5381 C   0  0  0  0  0  0  0  0  0  0  0  0
    1.8964  -32.5848  -25.7887 H   0  0  0  0  0  0  0  0  0  0  0  0
    3.8392  -33.2329  -25.3282 H   0  0  0  0  0  0  0  0  0  0  0  0
    5.7642  -30.1626  -24.6943 N   0  0  0  0  0  0  0  0  0  0  0  0
    5.9855  -28.9038  -25.1133 C   0  0  0  0  0  0  0  0  0  0  0  0
    6.5045  -28.1757  -24.1157 N   0  0  0  0  0  0  0  0  0  0  0  0
    6.6240  -28.9676  -23.0319 C   0  0  0  0  0  0  0  0  0  0  0  0
    7.0816  -28.7856  -21.7435 C   0  0  0  0  0  0  0  0  0  0  0  0
    7.5108  -27.6529  -21.3908 O   0  0  0  0  0  0  0  0  0  0  0  0
    7.0536  -29.8417  -20.8920 N   0  0  0  0  0  0  0  0  0  0  0  0
    6.6024  -31.0521  -21.2452 C   0  0  0  0  0  0  0  0  0  0  0  0
    6.6034  -32.1159  -20.2950 N   0  0  0  0  0  0  0  0  0  0  0  0
    6.1492  -31.2343  -22.5197 N   0  0  0  0  0  0  0  0  0  0  0  0
    6.1544  -30.2172  -23.4085 C   0  0  0  0  0  0  0  0  0  0  0  0
    7.4154  -29.6406  -19.9240 H   0  0  0  0  0  0  0  0  0  0  0  0
    5.9701  -32.0057  -19.4538 H   0  0  0  0  0  0  0  0  0  0  0  0
    7.1918  -32.9713  -20.4028 H   0  0  0  0  0  0  0  0  0  0  0  0
    3.9828  -30.7507  -28.8570 C   0  0  0  0  0  0  0  0  0  0  0  0
    2.8966  -29.8876  -28.8331 O   0  0  0  0  0  0  0  0  0  0  0  0
    3.3610  -28.2692  -29.0373 P   0  0  0  0  0  0  0  0  0  0  0  0
    2.9806  -27.8729  -30.4474 O   0  0  0  0  0  0  0  0  0  0  0  0
    5.0343  -28.2378  -28.8069 O   0  0  0  0  0  0  0  0  0  0  0  0
    5.4294  -29.0900  -28.5686 H   0  0  0  0  0  0  0  0  0  0  0  0
    2.5519  -27.2312  -28.0106 O   0  0  0  0  0  0  0  0  0  0  0  0
    3.2527  -25.7168  -27.8769 P   0  0  0  0  0  0  0  0  0  0  0  0
    2.1202  -24.6959  -27.8052 O   0  0  0  0  0  0  0  0  0  0  0  0
    4.2602  -25.3025  -29.1358 O   0  0  0  0  0  0  0  0  0  0  0  0
    4.3281  -26.0815  -29.7583 H   0  0  0  0  0  0  0  0  0  0  0  0
    4.0707  -25.6497  -26.4031 O   0  0  0  0  0  0  0  0  0  0  0  0
    5.6856  -25.2506  -26.5624 P   0  0  0  0  0  0  0  0  0  0  0  0
    6.3809  -26.3061  -27.3926 O   0  0  0  0  0  0  0  0  0  0  0  0
    6.4887  -25.2081  -25.0649 O   0  0  0  0  0  0  0  0  0  0  0  0
    5.8987  -23.7731  -27.3838 O   0  0  0  0  0  0  0  0  0  0  0  0
    6.6036  -26.1556  -24.7978 H   0  0  0  0  0  0  0  0  0  0  0  0
    5.3787  -23.0697  -26.9192 H   0  0  0  0  0  0  0  0  0  0  0  0
 36 37  2  0  0  0
 36 38  1  0  0  0
 36 39  1  0  0  0
 36 35  1  0  0  0
 38 40  1  0  0  0
 39 41  1  0  0  0
 31 35  1  0  0  0
 31 32  2  0  0  0
 31 33  1  0  0  0
 31 30  1  0  0  0
 33 34  1  0  0  0
 26 30  1  0  0  0
 26 27  2  0  0  0
 26 28  1  0  0  0
 26 25  1  0  0  0
 28 29  1  0  0  0
 25 24  1  0  0  0
 24  1  1  0  0  0
  1  2  1  0  0  0
  1  3  1  0  0  0
  2  7  1  0  0  0
  3  4  1  0  0  0
  3  5  1  0  0  0
  4  8  1  0  0  0
  5  6  1  0  0  0
  5  7  1  0  0  0
  6  9  1  0  0  0
  7 10  1  0  0  0
 10 11  1  0  0  0
 10 20  1  0  0  0
 11 12  2  0  0  0
 12 13  2  0  0  0
 13 14  1  0  0  0
 13 20  2  0  0  0
 14 15  2  0  0  0
 14 16  1  0  0  0
 16 17  1  0  0  0
 16 21  1  0  0  0
 17 18  1  0  0  0
 17 19  2  0  0  0
 18 22  1  0  0  0
 18 23  1  0  0  0
 19 20  2  0  0  0
M  END
> <minimizedAffinity>
-10.00006

$$$$
GTP


 41 43  0  0  0  0  0  0  0  0999 V2000
    2.7016  -28.4179  -28.2783 C   0  0  0  0  0  0  0  0  0  0  0  0
    3.4265  -27.5942  -27.3935 O   0  0  0  0  0  0  0  0  0  0  0  0
    3.3929  -28.1259  -29.5722 C   0  0  0  0  0  0  0  0  0  0  0  0
    2.5794  -28.3273  -30.6831 O   0  0  0  0  0  0  0  0  0  0  0  0
    3.6442  -26.6351  -29.4986 C   0  0  0  0  0  0  0  0  0  0  0  0
    2.6876  -25.9337  -30.1913 O   0  0  0  0  0  0  0  0  0  0  0  0
    3.4906  -26.3482  -28.0213 C   0  0  0  0  0  0  0  0  0  0  0  0
    2.4607  -27.5502  -31.2499 H   0  0  0  0  0  0  0  0  0  0  0  0
    1.8148  -26.1669  -29.8091 H   0  0  0  0  0  0  0  0  0  0  0  0
    4.6949  -25.6751  -27.5734 N   0  0  0  0  0  0  0  0  0  0  0  0
    5.1210  -24.5019  -28.0744 C   0  0  0  0  0  0  0  0  0  0  0  0
    6.2558  -24.1316  -27.4663 N   0  0  0  0  0  0  0  0  0  0  0  0
    6.5753  -25.0736  -26.5571 C   0  0  0  0  0  0  0  0  0  0  0  0
    7.6034  -25.2394  -25.6527 C   0  0  0  0  0  0  0  0  0  0  0  0
    8.5096  -24.3652  -25.5750 O   0  0  0  0  0  0  0  0  0  0  0  0
    7.6040  -26.3481  -24.8703 N   0  0  0  0  0  0  0  0  0  0  0  0
    6.6527  -27.2883  -24.9361 C   0  0  0  0  0  0  0  0  0  0  0  0
    6.7195  -28.4279  -24.0810 N   0  0  0  0  0  0  0  0  0  0  0  0
    5.6344  -27.1260  -25.8305 N   0  0  0  0  0  0  0  0  0  0  0  0
    5.5845  -26.0413  -26.6337 C   0  0  0  0  0  0  0  0  0  0  0  0
    8.4136  -26.4179  -24.2009 H   0  0  0  0  0  0  0  0  0  0  0  0
    6.6253  -28.2513  -23.0414 H   0  0  0  0  0  0  0  0  0  0  0  0
    6.8544  -29.3986  -24.4404 H   0  0  0  0  0  0  0  0  0  0  0  0
    2.8814  -29.8570  -27.8392 C   0  0  0  0  0  0  0  0  0  0  0  0
    3.5106  -29.9458  -26.6056 O   0  0  0  0  0  0  0  0  0  0  0  0
    5.0278  -30.6959  -26.7140 P   0  0  0  0  0  0  0  0  0  0  0  0
    5.5895  -30.7661  -25.3105 O   0  0  0  0  0  0  0  0  0  0  0  0
    5.9611  -29.7045  -27.7140 O   0  0  0  0  0  0  0  0  0  0  0  0
    5.4951  -28.9358  -28.0763 H   0  0  0  0  0  0  0  0  0  0  0  0
    4.9332  -32.2656  -27.2739 O   0  0  0  0  0  0  0  0  0  0  0  0
    3.8741  -33.2360  -26.4144 P   0  0  0  0  0  0  0  0  0  0  0  0
    2.7947  -33.7044  -27.3867 O   0  0  0  0  0  0  0  0  0  0  0  0
    3.1355  -32.4874  -25.1237 O   0  0  0  0  0  0  0  0  0  0  0  0
    3.5062  -31.5633  -25.0375 H   0  0  0  0  0  0  0  0  0  0  0  0
    4.7158  -34.6095  -25.9135 O   0  0  0  0  0  0  0  0  0  0  0  0
    6.1057  -34.2554  -25.0559 P   0  0  0  0  0  0  0  0  0  0  0  0
    6.7709  -35.5446  -24.6294 O   0  0  0  0  0  0  0  0  0  0  0  0
    5.7794  -33.3867  -23.6318 O   0  0  0  0  0  0  0  0  0  0  0  0
    7.2443  -33.4165  -26.0062 O   0  0  0  0  0  0  0  0  0  0  0  0
    5.3895  -34.0451  -23.0021 H   0  0  0  0  0  0  0  0  0  0  0  0
    6.8146  -32.6071  -26.3821 H   0  0  0  0  0  0  0  0  0  0  0  0
 36 37  2  0  0  0
 36 38  1  0  0  0
 36 39  1  0  0  0
 36 35  1  0  0  0
 38 40  1  0  0  0
 39 41  1  0  0  0
 31 35  1  0  0  0
 31 32  2  0  0  0
 31 33  1  0  0  0
 31 30  1  0  0  0
 33 34  1  0  0  0
 26 30  1  0  0  0
 26 27  2  0  0  0
 26 28  1  0  0  0
 26 25  1  0  0  0
 28 29  1  0  0  0
 25 24  1  0  0  0
 24  1  1  0  0  0
  1  2  1  0  0  0
  1  3  1  0  0  0
  2  7  1  0  0  0
  3  4  1  0  0  0
  3  5  1  0  0  0
  4  8  1  0  0  0
  5  6  1  0  0  0
  5  7  1  0  0  0
  6  9  1  0  0  0
  7 10  1  0  0  0
 10 11  1  0  0  0
 10 20  1  0  0  0
 11 12  2  0  0  0
 12 13  2  0  0  0
 13 14  1  0  0  0
 13 20  2  0  0  0
 14 15  2  0  0  0
 14 16  1  0  0  0
 16 17  1  0  0  0
 16 21  1  0  0  0
 17 18  1  0  0  0
 17 19  2  0  0  0
 18 22  1  0  0  0
 18 23  1  0  0  0
 19 20  2  0  0  0
M  END
> <minimizedAffinity>
-9.98858

$$$$
GTP


 41 43  0  0  0  0  0  0  0  0999 V2000
    6.8500  -25.3568  -25.2167 C   0  0  0  0  0  0  0  0  0  0  0  0
    6.0965  -25.8422  -26.3047 O   0  0  0  0  0  0  0  0  0  0  0  0
    7.6287  -26.5774  -24.8408 C   0  0  0  0  0  0  0  0  0  0  0  0
    8.0124  -26.5894  -23.5033 O   0  0  0  0  0  0  0  0  0  0  0  0
    6.6172  -27.6923  -24.9990 C   0  0  0  0  0  0  0  0  0  0  0  0
    6.0608  -28.0355  -23.7909 O   0  0  0  0  0  0  0  0  0  0  0  0
    5.5549  -27.0524  -25.8652 C   0  0  0  0  0  0  0  0  0  0  0  0
    7.6990  -27.3521  -22.9942 H   0  0  0  0  0  0  0  0  0  0  0  0
    5.6463  -27.2293  -23.4162 H   0  0  0  0  0  0  0  0  0  0  0  0
    5.3523  -27.9057  -27.0205 N   0  0  0  0  0  0  0  0  0  0  0  0
    6.0003  -29.0693  -27.2082 C   0  0  0  0  0  0  0  0  0  0  0  0
    5.6063  -29.6301  -28.3592 N   0  0  0  0  0  0  0  0  0  0  0  0
    4.6901  -28.8239  -28.9308 C   0  0  0  0  0  0  0  0  0  0  0  0
    3.9475  -28.8701  -30.0921 C   0  0  0  0  0  0  0  0  0  0  0  0
    4.0780  -29.8511  -30.8745 O   0  0  0  0  0  0  0  0  0  0  0  0
    3.0938  -27.8486  -30.3550 N   0  0  0  0  0  0  0  0  0  0  0  0
    2.9396  -26.7980  -29.5389 C   0  0  0  0  0  0  0  0  0  0  0  0
    2.0224  -25.7608  -29.8814 N   0  0  0  0  0  0  0  0  0  0  0  0
    3.6736  -26.7505  -28.3891 N   0  0  0  0  0  0  0  0  0  0  0  0
    4.5383  -27.7404  -28.0781 C   0  0  0  0  0  0  0  0  0  0  0  0
    2.5557  -27.9409  -31.2552 H   0  0  0  0  0  0  0  0  0  0  0  0
    0.9970  -26.0221  -29.9163 H   0  0  0  0  0  0  0  0  0  0  0  0
    2.3245  -24.7840  -30.0916 H   0  0  0  0  0  0  0  0  0  0  0  0
    7.7383  -24.2368  -25.7191 C   0  0  0  0  0  0  0  0  0  0  0  0
    8.7273  -23.9110  -24.8019 O   0  0  0  0  0  0  0  0  0  0  0  0
    8.6460  -22.2857  -24.3240 P   0  0  0  0  0  0  0  0  0  0  0  0
    7.1937  -21.9833  -24.0248 O   0  0  0  0  0  0  0  0  0  0  0  0
    9.2151  -21.3903  -25.6386 O   0  0  0  0  0  0  0  0  0  0  0  0
    9.5171  -21.9191  -26.3925 H   0  0  0  0  0  0  0  0  0  0  0  0
    9.4999  -21.9817  -22.9223 O   0  0  0  0  0  0  0  0  0  0  0  0
    8.8811  -22.7424  -21.5655 P   0  0  0  0  0  0  0  0  0  0  0  0
   10.0664  -23.2288  -20.7360 O   0  0  0  0  0  0  0  0  0  0  0  0
    7.8907  -24.0415  -21.8867 O   0  0  0  0  0  0  0  0  0  0  0  0
    7.7786  -24.1186  -22.8768 H   0  0  0  0  0  0  0  0  0  0  0  0
    8.0749  -21.5841  -20.6412 O   0  0  0  0  0  0  0  0  0  0  0  0
    6.5550  -22.0738  -20.1487 P   0  0  0  0  0  0  0  0  0  0  0  0
    6.6868  -23.2861  -19.2544 O   0  0  0  0  0  0  0  0  0  0  0  0
    5.5750  -22.5428  -21.4559 O   0  0  0  0  0  0  0  0  0  0  0  0
    5.7679  -20.8770  -19.2261 O   0  0  0  0  0  0  0  0  0  0  0  0
    5.9208  -23.4258  -21.7442 H   0  0  0  0  0  0  0  0  0  0  0  0
    5.7443  -20.0345  -19.7463 H   0  0  0  0  0  0  0  0  0  0  0  0
 36 37  2  0  0  0
 36 38  1  0  0  0
 36 39  1  0  0  0
 36 35  1  0  0  0
 38 40  1  0  0  0
 39 41  1  0  0  0
 31 35  1  0  0  0
 31 32  2  0  0  0
 31 33  1  0  0  0
 31 30  1  0  0  0
 33 34  1  0  0  0
 26 30  1  0  0  0
 26 27  2  0  0  0
 26 28  1  0  0  0
 26 25  1  0  0  0
 28 29  1  0  0  0
 25 24  1  0  0  0
 24  1  1  0  0  0
  1  2  1  0  0  0
  1  3  1  0  0  0
  2  7  1  0  0  0
  3  4  1  0  0  0
  3  5  1  0  0  0
  4  8  1  0  0  0
  5  6  1  0  0  0
  5  7  1  0  0  0
  6  9  1  0  0  0
  7 10  1  0  0  0
 10 11  1  0  0  0
 10 20  1  0  0  0
 11 12  2  0  0  0
 12 13  2  0  0  0
 13 14  1  0  0  0
 13 20  2  0  0  0
 14 15  2  0  0  0
 14 16  1  0  0  0
 16 17  1  0  0  0
 16 21  1  0  0  0
 17 18  1  0  0  0
 17 19  2  0  0  0
 18 22  1  0  0  0
 18 23  1  0  0  0
 19 20  2  0  0  0
M  END
> <minimizedAffinity>
-9.95152

$$$$
GTP


 41 43  0  0  0  0  0  0  0  0999 V2000
    7.8082  -23.3492  -24.8565 C   0  0  0  0  0  0  0  0  0  0  0  0
    7.2827  -23.6107  -23.5749 O   0  0  0  0  0  0  0  0  0  0  0  0
    9.1962  -22.9105  -24.5125 C   0  0  0  0  0  0  0  0  0  0  0  0
    9.7544  -22.0668  -25.4680 O   0  0  0  0  0  0  0  0  0  0  0  0
    8.9922  -22.0664  -23.2727 C   0  0  0  0  0  0  0  0  0  0  0  0
    8.9623  -20.7280  -23.5804 O   0  0  0  0  0  0  0  0  0  0  0  0
    7.6185  -22.4942  -22.8057 C   0  0  0  0  0  0  0  0  0  0  0  0
   10.0307  -21.1991  -25.1368 H   0  0  0  0  0  0  0  0  0  0  0  0
    8.2390  -20.5894  -24.2284 H   0  0  0  0  0  0  0  0  0  0  0  0
    7.7318  -22.9132  -21.4217 N   0  0  0  0  0  0  0  0  0  0  0  0
    8.6872  -23.7468  -20.9731 C   0  0  0  0  0  0  0  0  0  0  0  0
    8.5356  -23.9483  -19.6574 N   0  0  0  0  0  0  0  0  0  0  0  0
    7.4687  -23.2381  -19.2410 C   0  0  0  0  0  0  0  0  0  0  0  0
    6.8407  -23.0533  -18.0269 C   0  0  0  0  0  0  0  0  0  0  0  0
    7.2859  -23.6381  -17.0016 O   0  0  0  0  0  0  0  0  0  0  0  0
    5.7551  -22.2406  -17.9775 N   0  0  0  0  0  0  0  0  0  0  0  0
    5.2657  -21.6103  -19.0529 C   0  0  0  0  0  0  0  0  0  0  0  0
    4.1198  -20.7708  -18.9242 N   0  0  0  0  0  0  0  0  0  0  0  0
    5.8858  -21.7919  -20.2552 N   0  0  0  0  0  0  0  0  0  0  0  0
    6.9703  -22.5900  -20.3614 C   0  0  0  0  0  0  0  0  0  0  0  0
    5.3200  -22.1396  -17.0241 H   0  0  0  0  0  0  0  0  0  0  0  0
    4.2287  -19.9016  -18.3297 H   0  0  0  0  0  0  0  0  0  0  0  0
    3.2075  -20.9831  -19.3848 H   0  0  0  0  0  0  0  0  0  0  0  0
    7.7901  -24.6415  -25.6475 C   0  0  0  0  0  0  0  0  0  0  0  0
    6.5689  -25.2925  -25.5457 O   0  0  0  0  0  0  0  0  0  0  0  0
    6.6649  -26.9127  -26.0378 P   0  0  0  0  0  0  0  0  0  0  0  0
    5.8101  -27.7178  -25.0831 O   0  0  0  0  0  0  0  0  0  0  0  0
    8.2973  -27.3325  -25.9241 O   0  0  0  0  0  0  0  0  0  0  0  0
    8.8860  -26.6121  -25.6527 H   0  0  0  0  0  0  0  0  0  0  0  0
    6.0432  -27.1607  -27.5669 O   0  0  0  0  0  0  0  0  0  0  0  0
    4.4204  -26.7776  -27.7162 P   0  0  0  0  0  0  0  0  0  0  0  0
    4.2103  -26.2274  -29.1243 O   0  0  0  0  0  0  0  0  0  0  0  0
    3.8670  -25.6532  -26.6202 O   0  0  0  0  0  0  0  0  0  0  0  0
    4.6113  -25.4282  -25.9924 H   0  0  0  0  0  0  0  0  0  0  0  0
    3.5353  -28.2097  -27.6094 O   0  0  0  0  0  0  0  0  0  0  0  0
    4.2959  -29.5109  -28.3312 P   0  0  0  0  0  0  0  0  0  0  0  0
    3.2989  -30.6329  -28.5144 O   0  0  0  0  0  0  0  0  0  0  0  0
    5.5532  -30.1344  -27.3722 O   0  0  0  0  0  0  0  0  0  0  0  0
    4.8797  -29.1258  -29.8850 O   0  0  0  0  0  0  0  0  0  0  0  0
    5.1075  -30.6235  -26.6345 H   0  0  0  0  0  0  0  0  0  0  0  0
    5.4682  -28.3319  -29.8191 H   0  0  0  0  0  0  0  0  0  0  0  0
 36 37  2  0  0  0
 36 38  1  0  0  0
 36 39  1  0  0  0
 36 35  1  0  0  0
 38 40  1  0  0  0
 39 41  1  0  0  0
 31 35  1  0  0  0
 31 32  2  0  0  0
 31 33  1  0  0  0
 31 30  1  0  0  0
 33 34  1  0  0  0
 26 30  1  0  0  0
 26 27  2  0  0  0
 26 28  1  0  0  0
 26 25  1  0  0  0
 28 29  1  0  0  0
 25 24  1  0  0  0
 24  1  1  0  0  0
  1  2  1  0  0  0
  1  3  1  0  0  0
  2  7  1  0  0  0
  3  4  1  0  0  0
  3  5  1  0  0  0
  4  8  1  0  0  0
  5  6  1  0  0  0
  5  7  1  0  0  0
  6  9  1  0  0  0
  7 10  1  0  0  0
 10 11  1  0  0  0
 10 20  1  0  0  0
 11 12  2  0  0  0
 12 13  2  0  0  0
 13 14  1  0  0  0
 13 20  2  0  0  0
 14 15  2  0  0  0
 14 16  1  0  0  0
 16 17  1  0  0  0
 16 21  1  0  0  0
 17 18  1  0  0  0
 17 19  2  0  0  0
 18 22  1  0  0  0
 18 23  1  0  0  0
 19 20  2  0  0  0
M  END
> <minimizedAffinity>
-9.81874

$$$$
GTP


 41 43  0  0  0  0  0  0  0  0999 V2000
    3.6706  -28.7842  -29.0028 C   0  0  0  0  0  0  0  0  0  0  0  0
    4.6048  -28.1462  -28.1619 O   0  0  0  0  0  0  0  0  0  0  0  0
    3.2499  -27.6465  -29.8781 C   0  0  0  0  0  0  0  0  0  0  0  0
    1.9715  -27.8065  -30.4039 O   0  0  0  0  0  0  0  0  0  0  0  0
    3.1661  -26.4835  -28.9130 C   0  0  0  0  0  0  0  0  0  0  0  0
    1.8719  -26.2641  -28.5082 O   0  0  0  0  0  0  0  0  0  0  0  0
    3.9734  -26.9766  -27.7326 C   0  0  0  0  0  0  0  0  0  0  0  0
    1.3475  -27.0977  -30.1861 H   0  0  0  0  0  0  0  0  0  0  0  0
    1.5462  -27.0926  -28.0963 H   0  0  0  0  0  0  0  0  0  0  0  0
    4.9948  -25.9863  -27.4500 N   0  0  0  0  0  0  0  0  0  0  0  0
    5.1746  -24.8734  -28.1835 C   0  0  0  0  0  0  0  0  0  0  0  0
    6.1883  -24.1554  -27.6820 N   0  0  0  0  0  0  0  0  0  0  0  0
    6.6770  -24.8065  -26.6080 C   0  0  0  0  0  0  0  0  0  0  0  0
    7.6928  -24.5648  -25.7068 C   0  0  0  0  0  0  0  0  0  0  0  0
    8.3899  -23.5197  -25.8219 O   0  0  0  0  0  0  0  0  0  0  0  0
    7.9087  -25.4686  -24.7179 N   0  0  0  0  0  0  0  0  0  0  0  0
    7.1812  -26.5840  -24.5772 C   0  0  0  0  0  0  0  0  0  0  0  0
    7.4665  -27.4888  -23.5121 N   0  0  0  0  0  0  0  0  0  0  0  0
    6.1755  -26.8250  -25.4680 N   0  0  0  0  0  0  0  0  0  0  0  0
    5.9170  -25.9587  -26.4715 C   0  0  0  0  0  0  0  0  0  0  0  0
    8.6968  -25.2288  -24.0623 H   0  0  0  0  0  0  0  0  0  0  0  0
    7.3097  -27.1325  -22.5276 H   0  0  0  0  0  0  0  0  0  0  0  0
    7.8141  -28.4600  -23.6716 H   0  0  0  0  0  0  0  0  0  0  0  0
    4.3931  -29.8700  -29.7741 C   0  0  0  0  0  0  0  0  0  0  0  0
    3.6019  -30.9973  -29.9432 O   0  0  0  0  0  0  0  0  0  0  0  0
    3.6962  -32.0498  -28.6166 P   0  0  0  0  0  0  0  0  0  0  0  0
    3.8406  -33.4506  -29.1708 O   0  0  0  0  0  0  0  0  0  0  0  0
    2.2463  -31.8562  -27.7714 O   0  0  0  0  0  0  0  0  0  0  0  0
    1.6485  -31.1857  -28.1349 H   0  0  0  0  0  0  0  0  0  0  0  0
    5.0375  -31.7683  -27.6636 O   0  0  0  0  0  0  0  0  0  0  0  0
    5.3257  -32.9562  -26.5199 P   0  0  0  0  0  0  0  0  0  0  0  0
    6.4411  -33.8471  -27.0601 O   0  0  0  0  0  0  0  0  0  0  0  0
    4.0104  -33.9123  -26.1626 O   0  0  0  0  0  0  0  0  0  0  0  0
    3.2199  -33.5669  -26.6673 H   0  0  0  0  0  0  0  0  0  0  0  0
    5.9220  -32.2078  -25.1306 O   0  0  0  0  0  0  0  0  0  0  0  0
    5.6115  -30.5666  -25.0802 P   0  0  0  0  0  0  0  0  0  0  0  0
    6.1614  -29.9940  -23.7932 O   0  0  0  0  0  0  0  0  0  0  0  0
    3.9462  -30.2262  -25.0872 O   0  0  0  0  0  0  0  0  0  0  0  0
    6.3854  -29.7327  -26.3487 O   0  0  0  0  0  0  0  0  0  0  0  0
    3.6236  -30.4583  -24.1793 H   0  0  0  0  0  0  0  0  0  0  0  0
    6.1203  -30.1421  -27.2107 H   0  0  0  0  0  0  0  0  0  0  0  0
 36 37  2  0  0  0
 36 38  1  0  0  0
 36 39  1  0  0  0
 36 35  1  0  0  0
 38 40  1  0  0  0
 39 41  1  0  0  0
 31 35  1  0  0  0
 31 32  2  0  0  0
 31 33  1  0  0  0
 31 30  1  0  0  0
 33 34  1  0  0  0
 26 30  1  0  0  0
 26 27  2  0  0  0
 26 28  1  0  0  0
 26 25  1  0  0  0
 28 29  1  0  0  0
 25 24  1  0  0  0
 24  1  1  0  0  0
  1  2  1  0  0  0
  1  3  1  0  0  0
  2  7  1  0  0  0
  3  4  1  0  0  0
  3  5  1  0  0  0
  4  8  1  0  0  0
  5  6  1  0  0  0
  5  7  1  0  0  0
  6  9  1  0  0  0
  7 10  1  0  0  0
 10 11  1  0  0  0
 10 20  1  0  0  0
 11 12  2  0  0  0
 12 13  2  0  0  0
 13 14  1  0  0  0
 13 20  2  0  0  0
 14 15  2  0  0  0
 14 16  1  0  0  0
 16 17  1  0  0  0
 16 21  1  0  0  0
 17 18  1  0  0  0
 17 19  2  0  0  0
 18 22  1  0  0  0
 18 23  1  0  0  0
 19 20  2  0  0  0
M  END
> <minimizedAffinity>
-9.74947

$$$$
GTP


 41 43  0  0  0  0  0  0  0  0999 V2000
    7.8342  -23.2238  -24.5498 C   0  0  0  0  0  0  0  0  0  0  0  0
    7.4407  -23.2904  -23.1979 O   0  0  0  0  0  0  0  0  0  0  0  0
    9.2905  -22.9127  -24.4088 C   0  0  0  0  0  0  0  0  0  0  0  0
    9.8140  -22.2410  -25.5093 O   0  0  0  0  0  0  0  0  0  0  0  0
    9.3216  -21.9277  -23.2599 C   0  0  0  0  0  0  0  0  0  0  0  0
    9.3912  -20.6335  -23.7149 O   0  0  0  0  0  0  0  0  0  0  0  0
    7.9768  -22.1461  -22.6028 C   0  0  0  0  0  0  0  0  0  0  0  0
   10.2142  -21.3808  -25.3116 H   0  0  0  0  0  0  0  0  0  0  0  0
    8.6140  -20.4810  -24.2935 H   0  0  0  0  0  0  0  0  0  0  0  0
    8.2103  -22.4304  -21.1998 N   0  0  0  0  0  0  0  0  0  0  0  0
    7.5134  -21.8618  -20.1998 C   0  0  0  0  0  0  0  0  0  0  0  0
    7.9535  -22.3186  -19.0199 N   0  0  0  0  0  0  0  0  0  0  0  0
    8.9499  -23.1961  -19.2511 C   0  0  0  0  0  0  0  0  0  0  0  0
    9.7666  -23.9686  -18.4520 C   0  0  0  0  0  0  0  0  0  0  0  0
    9.6358  -23.9194  -17.1982 O   0  0  0  0  0  0  0  0  0  0  0  0
   10.6915  -24.7625  -19.0484 N   0  0  0  0  0  0  0  0  0  0  0  0
   10.8475  -24.8301  -20.3767 C   0  0  0  0  0  0  0  0  0  0  0  0
   11.8419  -25.6884  -20.9326 N   0  0  0  0  0  0  0  0  0  0  0  0
   10.0402  -24.0664  -21.1692 N   0  0  0  0  0  0  0  0  0  0  0  0
    9.1028  -23.2583  -20.6282 C   0  0  0  0  0  0  0  0  0  0  0  0
   11.2840  -25.3274  -18.3865 H   0  0  0  0  0  0  0  0  0  0  0  0
   11.7112  -26.7287  -20.7860 H   0  0  0  0  0  0  0  0  0  0  0  0
   12.6672  -25.3306  -21.4621 H   0  0  0  0  0  0  0  0  0  0  0  0
    7.5917  -24.5802  -25.1801 C   0  0  0  0  0  0  0  0  0  0  0  0
    7.6461  -25.6024  -24.2433 O   0  0  0  0  0  0  0  0  0  0  0  0
    7.1838  -27.0965  -24.8994 P   0  0  0  0  0  0  0  0  0  0  0  0
    7.2248  -28.1072  -23.7737 O   0  0  0  0  0  0  0  0  0  0  0  0
    8.3228  -27.4456  -26.0972 O   0  0  0  0  0  0  0  0  0  0  0  0
    8.9918  -26.7584  -26.2368 H   0  0  0  0  0  0  0  0  0  0  0  0
    5.6200  -27.0889  -25.4830 O   0  0  0  0  0  0  0  0  0  0  0  0
    5.4541  -27.7670  -27.0045 P   0  0  0  0  0  0  0  0  0  0  0  0
    4.0232  -28.2861  -27.1180 O   0  0  0  0  0  0  0  0  0  0  0  0
    6.4998  -29.0222  -27.3249 O   0  0  0  0  0  0  0  0  0  0  0  0
    7.1172  -29.1283  -26.5461 H   0  0  0  0  0  0  0  0  0  0  0  0
    5.6235  -26.5354  -28.1448 O   0  0  0  0  0  0  0  0  0  0  0  0
    4.6155  -25.2326  -27.8636 P   0  0  0  0  0  0  0  0  0  0  0  0
    3.6861  -25.0570  -29.0434 O   0  0  0  0  0  0  0  0  0  0  0  0
    5.4761  -23.7753  -27.7061 O   0  0  0  0  0  0  0  0  0  0  0  0
    3.6233  -25.4775  -26.5002 O   0  0  0  0  0  0  0  0  0  0  0  0
    5.7632  -23.5355  -28.6238 H   0  0  0  0  0  0  0  0  0  0  0  0
    4.1960  -25.6886  -25.7202 H   0  0  0  0  0  0  0  0  0  0  0  0
 36 37  2  0  0  0
 36 38  1  0  0  0
 36 39  1  0  0  0
 36 35  1  0  0  0
 38 40  1  0  0  0
 39 41  1  0  0  0
 31 35  1  0  0  0
 31 32  2  0  0  0
 31 33  1  0  0  0
 31 30  1  0  0  0
 33 34  1  0  0  0
 26 30  1  0  0  0
 26 27  2  0  0  0
 26 28  1  0  0  0
 26 25  1  0  0  0
 28 29  1  0  0  0
 25 24  1  0  0  0
 24  1  1  0  0  0
  1  2  1  0  0  0
  1  3  1  0  0  0
  2  7  1  0  0  0
  3  4  1  0  0  0
  3  5  1  0  0  0
  4  8  1  0  0  0
  5  6  1  0  0  0
  5  7  1  0  0  0
  6  9  1  0  0  0
  7 10  1  0  0  0
 10 11  1  0  0  0
 10 20  1  0  0  0
 11 12  2  0  0  0
 12 13  2  0  0  0
 13 14  1  0  0  0
 13 20  2  0  0  0
 14 15  2  0  0  0
 14 16  1  0  0  0
 16 17  1  0  0  0
 16 21  1  0  0  0
 17 18  1  0  0  0
 17 19  2  0  0  0
 18 22  1  0  0  0
 18 23  1  0  0  0
 19 20  2  0  0  0
M  END
> <minimizedAffinity>
-9.68961

$$$$
GTP


 41 43  0  0  0  0  0  0  0  0999 V2000
    3.2505  -30.3042  -27.2911 C   0  0  0  0  0  0  0  0  0  0  0  0
    3.5527  -29.9933  -25.9676 O   0  0  0  0  0  0  0  0  0  0  0  0
    3.8422  -31.6811  -27.5418 C   0  0  0  0  0  0  0  0  0  0  0  0
    4.6237  -31.6688  -28.6916 O   0  0  0  0  0  0  0  0  0  0  0  0
    4.7912  -31.8257  -26.3510 C   0  0  0  0  0  0  0  0  0  0  0  0
    6.0395  -32.3108  -26.7352 O   0  0  0  0  0  0  0  0  0  0  0  0
    4.8958  -30.3622  -25.9196 C   0  0  0  0  0  0  0  0  0  0  0  0
    5.0884  -30.7773  -28.6915 H   0  0  0  0  0  0  0  0  0  0  0  0
    6.7139  -31.7558  -26.2707 H   0  0  0  0  0  0  0  0  0  0  0  0
    5.4884  -30.2085  -24.6196 N   0  0  0  0  0  0  0  0  0  0  0  0
    5.4318  -31.1513  -23.6620 C   0  0  0  0  0  0  0  0  0  0  0  0
    6.0850  -30.7069  -22.5496 N   0  0  0  0  0  0  0  0  0  0  0  0
    6.5309  -29.4775  -22.8693 C   0  0  0  0  0  0  0  0  0  0  0  0
    7.2622  -28.5027  -22.1799 C   0  0  0  0  0  0  0  0  0  0  0  0
    7.6398  -28.7175  -20.9871 O   0  0  0  0  0  0  0  0  0  0  0  0
    7.5738  -27.3184  -22.7819 N   0  0  0  0  0  0  0  0  0  0  0  0
    7.1940  -27.0488  -24.0442 C   0  0  0  0  0  0  0  0  0  0  0  0
    7.4982  -25.8277  -24.7075 N   0  0  0  0  0  0  0  0  0  0  0  0
    6.4898  -27.9702  -24.7280 N   0  0  0  0  0  0  0  0  0  0  0  0
    6.1698  -29.1450  -24.1578 C   0  0  0  0  0  0  0  0  0  0  0  0
    8.1229  -26.5964  -22.2524 H   0  0  0  0  0  0  0  0  0  0  0  0
    6.8734  -25.0027  -24.7362 H   0  0  0  0  0  0  0  0  0  0  0  0
    8.4314  -25.7543  -25.2095 H   0  0  0  0  0  0  0  0  0  0  0  0
    1.7640  -30.2687  -27.5577 C   0  0  0  0  0  0  0  0  0  0  0  0
    1.1767  -29.0901  -27.1765 O   0  0  0  0  0  0  0  0  0  0  0  0
    1.5655  -27.8658  -28.2756 P   0  0  0  0  0  0  0  0  0  0  0  0
    0.4521  -26.8392  -28.2892 O   0  0  0  0  0  0  0  0  0  0  0  0
    1.6617  -28.4825  -29.8492 O   0  0  0  0  0  0  0  0  0  0  0  0
    0.9741  -29.2035  -29.9185 H   0  0  0  0  0  0  0  0  0  0  0  0
    2.9687  -27.0328  -27.8415 O   0  0  0  0  0  0  0  0  0  0  0  0
    3.1214  -25.5753  -28.6429 P   0  0  0  0  0  0  0  0  0  0  0  0
    2.7396  -24.3846  -27.7700 O   0  0  0  0  0  0  0  0  0  0  0  0
    2.1749  -25.5104  -30.0447 O   0  0  0  0  0  0  0  0  0  0  0  0
    2.6999  -25.2769  -30.8384 H   0  0  0  0  0  0  0  0  0  0  0  0
    4.7716  -25.3765  -29.0029 O   0  0  0  0  0  0  0  0  0  0  0  0
    5.6168  -25.5888  -27.5419 P   0  0  0  0  0  0  0  0  0  0  0  0
    6.5364  -24.4158  -27.3040 O   0  0  0  0  0  0  0  0  0  0  0  0
    6.5523  -26.9842  -27.5701 O   0  0  0  0  0  0  0  0  0  0  0  0
    4.5044  -25.6418  -26.2538 O   0  0  0  0  0  0  0  0  0  0  0  0
    7.5120  -26.8268  -27.4132 H   0  0  0  0  0  0  0  0  0  0  0  0
    3.5795  -25.5621  -26.6111 H   0  0  0  0  0  0  0  0  0  0  0  0
 36 37  2  0  0  0
 36 38  1  0  0  0
 36 39  1  0  0  0
 36 35  1  0  0  0
 38 40  1  0  0  0
 39 41  1  0  0  0
 31 35  1  0  0  0
 31 32  2  0  0  0
 31 33  1  0  0  0
 31 30  1  0  0  0
 33 34  1  0  0  0
 26 30  1  0  0  0
 26 27  2  0  0  0
 26 28  1  0  0  0
 26 25  1  0  0  0
 28 29  1  0  0  0
 25 24  1  0  0  0
 24  1  1  0  0  0
  1  2  1  0  0  0
  1  3  1  0  0  0
  2  7  1  0  0  0
  3  4  1  0  0  0
  3  5  1  0  0  0
  4  8  1  0  0  0
  5  6  1  0  0  0
  5  7  1  0  0  0
  6  9  1  0  0  0
  7 10  1  0  0  0
 10 11  1  0  0  0
 10 20  1  0  0  0
 11 12  2  0  0  0
 12 13  2  0  0  0
 13 14  1  0  0  0
 13 20  2  0  0  0
 14 15  2  0  0  0
 14 16  1  0  0  0
 16 17  1  0  0  0
 16 21  1  0  0  0
 17 18  1  0  0  0
 17 19  2  0  0  0
 18 22  1  0  0  0
 18 23  1  0  0  0
 19 20  2  0  0  0
M  END
> <minimizedAffinity>
-10.52384

$$$$
GTP


 41 43  0  0  0  0  0  0  0  0999 V2000
    6.9293  -25.9856  -25.6115 C   0  0  0  0  0  0  0  0  0  0  0  0
    7.8735  -25.2590  -24.8901 O   0  0  0  0  0  0  0  0  0  0  0  0
    6.7029  -25.2121  -26.8997 C   0  0  0  0  0  0  0  0  0  0  0  0
    5.3437  -25.0051  -27.1061 O   0  0  0  0  0  0  0  0  0  0  0  0
    7.3196  -23.8562  -26.5526 C   0  0  0  0  0  0  0  0  0  0  0  0
    6.5013  -22.7970  -26.9394 O   0  0  0  0  0  0  0  0  0  0  0  0
    7.3623  -23.9698  -25.0281 C   0  0  0  0  0  0  0  0  0  0  0  0
    4.9564  -24.8321  -26.1946 H   0  0  0  0  0  0  0  0  0  0  0  0
    6.4829  -22.1620  -26.1811 H   0  0  0  0  0  0  0  0  0  0  0  0
    8.1816  -22.9582  -24.4195 N   0  0  0  0  0  0  0  0  0  0  0  0
    9.3623  -22.5571  -24.9235 C   0  0  0  0  0  0  0  0  0  0  0  0
    9.8923  -21.5895  -24.1206 N   0  0  0  0  0  0  0  0  0  0  0  0
    8.9980  -21.4255  -23.1277 C   0  0  0  0  0  0  0  0  0  0  0  0
    8.9441  -20.5980  -21.9996 C   0  0  0  0  0  0  0  0  0  0  0  0
    9.8903  -19.7858  -21.7621 O   0  0  0  0  0  0  0  0  0  0  0  0
    7.8784  -20.6576  -21.1494 N   0  0  0  0  0  0  0  0  0  0  0  0
    6.8540  -21.5034  -21.3626 C   0  0  0  0  0  0  0  0  0  0  0  0
    5.7256  -21.5963  -20.5014 N   0  0  0  0  0  0  0  0  0  0  0  0
    6.8826  -22.3093  -22.4406 N   0  0  0  0  0  0  0  0  0  0  0  0
    7.9210  -22.2703  -23.2937 C   0  0  0  0  0  0  0  0  0  0  0  0
    7.8516  -20.0308  -20.3070 H   0  0  0  0  0  0  0  0  0  0  0  0
    5.6356  -22.2705  -19.7209 H   0  0  0  0  0  0  0  0  0  0  0  0
    4.9169  -20.9282  -20.6685 H   0  0  0  0  0  0  0  0  0  0  0  0
    7.3821  -27.4028  -25.8733 C   0  0  0  0  0  0  0  0  0  0  0  0
    6.4222  -28.3371  -25.5816 O   0  0  0  0  0  0  0  0  0  0  0  0
    5.5836  -28.7656  -26.9856 P   0  0  0  0  0  0  0  0  0  0  0  0
    6.4887  -28.5687  -28.1839 O   0  0  0  0  0  0  0  0  0  0  0  0
    4.2533  -27.7459  -27.2229 O   0  0  0  0  0  0  0  0  0  0  0  0
    4.5212  -26.8417  -26.8939 H   0  0  0  0  0  0  0  0  0  0  0  0
    5.1358  -30.3936  -26.9963 O   0  0  0  0  0  0  0  0  0  0  0  0
    3.9475  -30.7379  -25.8742 P   0  0  0  0  0  0  0  0  0  0  0  0
    2.5761  -30.2221  -26.2972 O   0  0  0  0  0  0  0  0  0  0  0  0
    4.2945  -30.0876  -24.3505 O   0  0  0  0  0  0  0  0  0  0  0  0
    4.2703  -30.7642  -23.6422 H   0  0  0  0  0  0  0  0  0  0  0  0
    3.8051  -32.4311  -25.8044 O   0  0  0  0  0  0  0  0  0  0  0  0
    5.1377  -32.9945  -24.9096 P   0  0  0  0  0  0  0  0  0  0  0  0
    5.1473  -34.5037  -24.8952 O   0  0  0  0  0  0  0  0  0  0  0  0
    5.0790  -32.4608  -23.3175 O   0  0  0  0  0  0  0  0  0  0  0  0
    6.5758  -32.4767  -25.6602 O   0  0  0  0  0  0  0  0  0  0  0  0
    5.0805  -33.1862  -22.6511 H   0  0  0  0  0  0  0  0  0  0  0  0
    6.3534  -31.9277  -26.4594 H   0  0  0  0  0  0  0  0  0  0  0  0
 36 37  2  0  0  0
 36 38  1  0  0  0
 36 39  1  0  0  0
 36 35  1  0  0  0
 38 40  1  0  0  0
 39 41  1  0  0  0
 31 35  1  0  0  0
 31 32  2  0  0  0
 31 33  1  0  0  0
 31 30  1  0  0  0
 33 34  1  0  0  0
 26 30  1  0  0  0
 26 27  2  0  0  0
 26 28  1  0  0  0
 26 25  1  0  0  0
 28 29  1  0  0  0
 25 24  1  0  0  0
 24  1  1  0  0  0
  1  2  1  0  0  0
  1  3  1  0  0  0
  2  7  1  0  0  0
  3  4  1  0  0  0
  3  5  1  0  0  0
  4  8  1  0  0  0
  5  6  1  0  0  0
  5  7  1  0  0  0
  6  9  1  0  0  0
  7 10  1  0  0  0
 10 11  1  0  0  0
 10 20  1  0  0  0
 11 12  2  0  0  0
 12 13  2  0  0  0
 13 14  1  0  0  0
 13 20  2  0  0  0
 14 15  2  0  0  0
 14 16  1  0  0  0
 16 17  1  0  0  0
 16 21  1  0  0  0
 17 18  1  0  0  0
 17 19  2  0  0  0
 18 22  1  0  0  0
 18 23  1  0  0  0
 19 20  2  0  0  0
M  END
> <minimizedAffinity>
-10.35125

$$$$
GTP


 41 43  0  0  0  0  0  0  0  0999 V2000
    7.4926  -25.2610  -26.0658 C   0  0  0  0  0  0  0  0  0  0  0  0
    7.5153  -26.0292  -24.9043 O   0  0  0  0  0  0  0  0  0  0  0  0
    6.1155  -25.4657  -26.6746 C   0  0  0  0  0  0  0  0  0  0  0  0
    6.2276  -25.8196  -28.0144 O   0  0  0  0  0  0  0  0  0  0  0  0
    5.6298  -26.7034  -25.9187 C   0  0  0  0  0  0  0  0  0  0  0  0
    5.0553  -27.6431  -26.7718 O   0  0  0  0  0  0  0  0  0  0  0  0
    6.9630  -27.2190  -25.3752 C   0  0  0  0  0  0  0  0  0  0  0  0
    7.0322  -26.4200  -28.0676 H   0  0  0  0  0  0  0  0  0  0  0  0
    5.4195  -28.5244  -26.5085 H   0  0  0  0  0  0  0  0  0  0  0  0
    6.7970  -28.2187  -24.3564 N   0  0  0  0  0  0  0  0  0  0  0  0
    6.1208  -29.3659  -24.5456 C   0  0  0  0  0  0  0  0  0  0  0  0
    6.1429  -30.0997  -23.3955 N   0  0  0  0  0  0  0  0  0  0  0  0
    6.8484  -29.3609  -22.5186 C   0  0  0  0  0  0  0  0  0  0  0  0
    7.2289  -29.5437  -21.1837 C   0  0  0  0  0  0  0  0  0  0  0  0
    6.8900  -30.5993  -20.5656 O   0  0  0  0  0  0  0  0  0  0  0  0
    7.9643  -28.5923  -20.5385 N   0  0  0  0  0  0  0  0  0  0  0  0
    8.3451  -27.4586  -21.1549 C   0  0  0  0  0  0  0  0  0  0  0  0
    9.1114  -26.4430  -20.5186 N   0  0  0  0  0  0  0  0  0  0  0  0
    7.9916  -27.2597  -22.4387 N   0  0  0  0  0  0  0  0  0  0  0  0
    7.2672  -28.1814  -23.0970 C   0  0  0  0  0  0  0  0  0  0  0  0
    8.2424  -28.7430  -19.5370 H   0  0  0  0  0  0  0  0  0  0  0  0
    8.7108  -25.6137  -20.0456 H   0  0  0  0  0  0  0  0  0  0  0  0
   10.1691  -26.5396  -20.5277 H   0  0  0  0  0  0  0  0  0  0  0  0
    7.7792  -23.8039  -25.7888 C   0  0  0  0  0  0  0  0  0  0  0  0
    8.9329  -23.6086  -25.0744 O   0  0  0  0  0  0  0  0  0  0  0  0
    8.9478  -22.0544  -24.4095 P   0  0  0  0  0  0  0  0  0  0  0  0
    7.5372  -21.6703  -24.0140 O   0  0  0  0  0  0  0  0  0  0  0  0
    9.4449  -20.9160  -25.5596 O   0  0  0  0  0  0  0  0  0  0  0  0
    9.0944  -21.2261  -26.4419 H   0  0  0  0  0  0  0  0  0  0  0  0
    9.8726  -21.9663  -22.9994 O   0  0  0  0  0  0  0  0  0  0  0  0
    9.2748  -22.9390  -21.7803 P   0  0  0  0  0  0  0  0  0  0  0  0
   10.3769  -23.6721  -21.0230 O   0  0  0  0  0  0  0  0  0  0  0  0
    8.1879  -24.1003  -22.3592 O   0  0  0  0  0  0  0  0  0  0  0  0
    7.3275  -24.0714  -21.8914 H   0  0  0  0  0  0  0  0  0  0  0  0
    8.5343  -21.9132  -20.6438 O   0  0  0  0  0  0  0  0  0  0  0  0
    7.0125  -22.5902  -20.2971 P   0  0  0  0  0  0  0  0  0  0  0  0
    7.1757  -24.0238  -19.8541 O   0  0  0  0  0  0  0  0  0  0  0  0
    6.0110  -22.5747  -21.6460 O   0  0  0  0  0  0  0  0  0  0  0  0
    6.2971  -21.7316  -19.0123 O   0  0  0  0  0  0  0  0  0  0  0  0
    5.6843  -23.4647  -21.9131 H   0  0  0  0  0  0  0  0  0  0  0  0
    6.8984  -20.9897  -18.7339 H   0  0  0  0  0  0  0  0  0  0  0  0
 36 37  2  0  0  0
 36 38  1  0  0  0
 36 39  1  0  0  0
 36 35  1  0  0  0
 38 40  1  0  0  0
 39 41  1  0  0  0
 31 35  1  0  0  0
 31 32  2  0  0  0
 31 33  1  0  0  0
 31 30  1  0  0  0
 33 34  1  0  0  0
 26 30  1  0  0  0
 26 27  2  0  0  0
 26 28  1  0  0  0
 26 25  1  0  0  0
 28 29  1  0  0  0
 25 24  1  0  0  0
 24  1  1  0  0  0
  1  2  1  0  0  0
  1  3  1  0  0  0
  2  7  1  0  0  0
  3  4  1  0  0  0
  3  5  1  0  0  0
  4  8  1  0  0  0
  5  6  1  0  0  0
  5  7  1  0  0  0
  6  9  1  0  0  0
  7 10  1  0  0  0
 10 11  1  0  0  0
 10 20  1  0  0  0
 11 12  2  0  0  0
 12 13  2  0  0  0
 13 14  1  0  0  0
 13 20  2  0  0  0
 14 15  2  0  0  0
 14 16  1  0  0  0
 16 17  1  0  0  0
 16 21  1  0  0  0
 17 18  1  0  0  0
 17 19  2  0  0  0
 18 22  1  0  0  0
 18 23  1  0  0  0
 19 20  2  0  0  0
M  END
> <minimizedAffinity>
-10.28399

$$$$
GTP


 41 43  0  0  0  0  0  0  0  0999 V2000
    6.8565  -25.9642  -25.2122 C   0  0  0  0  0  0  0  0  0  0  0  0
    7.7861  -25.2058  -24.5050 O   0  0  0  0  0  0  0  0  0  0  0  0
    6.7823  -25.3466  -26.5986 C   0  0  0  0  0  0  0  0  0  0  0  0
    5.4598  -25.0932  -26.9442 O   0  0  0  0  0  0  0  0  0  0  0  0
    7.4564  -23.9937  -26.3652 C   0  0  0  0  0  0  0  0  0  0  0  0
    6.7412  -22.9481  -26.9452 O   0  0  0  0  0  0  0  0  0  0  0  0
    7.3719  -23.9180  -24.8401 C   0  0  0  0  0  0  0  0  0  0  0  0
    5.0142  -24.7867  -26.0967 H   0  0  0  0  0  0  0  0  0  0  0  0
    6.7045  -22.2232  -26.2730 H   0  0  0  0  0  0  0  0  0  0  0  0
    8.2047  -22.8845  -24.2893 N   0  0  0  0  0  0  0  0  0  0  0  0
    9.3733  -22.5033  -24.8354 C   0  0  0  0  0  0  0  0  0  0  0  0
    9.9213  -21.5063  -24.0822 N   0  0  0  0  0  0  0  0  0  0  0  0
    9.0502  -21.3044  -23.0757 C   0  0  0  0  0  0  0  0  0  0  0  0
    9.0222  -20.4349  -21.9787 C   0  0  0  0  0  0  0  0  0  0  0  0
    9.9732  -19.6147  -21.7941 O   0  0  0  0  0  0  0  0  0  0  0  0
    7.9765  -20.4617  -21.1024 N   0  0  0  0  0  0  0  0  0  0  0  0
    6.9478  -21.3145  -21.2596 C   0  0  0  0  0  0  0  0  0  0  0  0
    5.8397  -21.3743  -20.3696 N   0  0  0  0  0  0  0  0  0  0  0  0
    6.9517  -22.1607  -22.3068 N   0  0  0  0  0  0  0  0  0  0  0  0
    7.9700  -22.1544  -23.1846 C   0  0  0  0  0  0  0  0  0  0  0  0
    7.9690  -19.8036  -20.2839 H   0  0  0  0  0  0  0  0  0  0  0  0
    5.7681  -22.0185  -19.5623 H   0  0  0  0  0  0  0  0  0  0  0  0
    5.0271  -20.7126  -20.5430 H   0  0  0  0  0  0  0  0  0  0  0  0
    7.2357  -27.4256  -25.2621 C   0  0  0  0  0  0  0  0  0  0  0  0
    6.1926  -28.2630  -24.9619 O   0  0  0  0  0  0  0  0  0  0  0  0
    5.6835  -29.0778  -26.3528 P   0  0  0  0  0  0  0  0  0  0  0  0
    5.7460  -30.5705  -26.1045 O   0  0  0  0  0  0  0  0  0  0  0  0
    6.7312  -28.7673  -27.6457 O   0  0  0  0  0  0  0  0  0  0  0  0
    7.6482  -28.6822  -27.2592 H   0  0  0  0  0  0  0  0  0  0  0  0
    4.0786  -28.7334  -26.7495 O   0  0  0  0  0  0  0  0  0  0  0  0
    3.5315  -29.6359  -28.0440 P   0  0  0  0  0  0  0  0  0  0  0  0
    2.7444  -30.8671  -27.6080 O   0  0  0  0  0  0  0  0  0  0  0  0
    4.7946  -30.1594  -29.0421 O   0  0  0  0  0  0  0  0  0  0  0  0
    4.6594  -29.9049  -29.9785 H   0  0  0  0  0  0  0  0  0  0  0  0
    2.4320  -28.6614  -28.9003 O   0  0  0  0  0  0  0  0  0  0  0  0
    3.0808  -27.0887  -28.9089 P   0  0  0  0  0  0  0  0  0  0  0  0
    2.4356  -26.2716  -30.0017 O   0  0  0  0  0  0  0  0  0  0  0  0
    4.7379  -27.1090  -29.1858 O   0  0  0  0  0  0  0  0  0  0  0  0
    2.7327  -26.3310  -27.4243 O   0  0  0  0  0  0  0  0  0  0  0  0
    5.0192  -26.5890  -29.9737 H   0  0  0  0  0  0  0  0  0  0  0  0
    2.2401  -26.9643  -26.8364 H   0  0  0  0  0  0  0  0  0  0  0  0
 36 37  2  0  0  0
 36 38  1  0  0  0
 36 39  1  0  0  0
 36 35  1  0  0  0
 38 40  1  0  0  0
 39 41  1  0  0  0
 31 35  1  0  0  0
 31 32  2  0  0  0
 31 33  1  0  0  0
 31 30  1  0  0  0
 33 34  1  0  0  0
 26 30  1  0  0  0
 26 27  2  0  0  0
 26 28  1  0  0  0
 26 25  1  0  0  0
 28 29  1  0  0  0
 25 24  1  0  0  0
 24  1  1  0  0  0
  1  2  1  0  0  0
  1  3  1  0  0  0
  2  7  1  0  0  0
  3  4  1  0  0  0
  3  5  1  0  0  0
  4  8  1  0  0  0
  5  6  1  0  0  0
  5  7  1  0  0  0
  6  9  1  0  0  0
  7 10  1  0  0  0
 10 11  1  0  0  0
 10 20  1  0  0  0
 11 12  2  0  0  0
 12 13  2  0  0  0
 13 14  1  0  0  0
 13 20  2  0  0  0
 14 15  2  0  0  0
 14 16  1  0  0  0
 16 17  1  0  0  0
 16 21  1  0  0  0
 17 18  1  0  0  0
 17 19  2  0  0  0
 18 22  1  0  0  0
 18 23  1  0  0  0
 19 20  2  0  0  0
M  END
> <minimizedAffinity>
-10.26294

$$$$
GTP


 41 43  0  0  0  0  0  0  0  0999 V2000
    2.6809  -29.7353  -28.0108 C   0  0  0  0  0  0  0  0  0  0  0  0
    3.2719  -28.7763  -27.1918 O   0  0  0  0  0  0  0  0  0  0  0  0
    3.8258  -30.4561  -28.7026 C   0  0  0  0  0  0  0  0  0  0  0  0
    3.6155  -30.4897  -30.0764 O   0  0  0  0  0  0  0  0  0  0  0  0
    4.9886  -29.4961  -28.4461 C   0  0  0  0  0  0  0  0  0  0  0  0
    5.7458  -29.2760  -29.5947 O   0  0  0  0  0  0  0  0  0  0  0  0
    4.2097  -28.2351  -28.0693 C   0  0  0  0  0  0  0  0  0  0  0  0
    3.2025  -29.6027  -30.3072 H   0  0  0  0  0  0  0  0  0  0  0  0
    5.9092  -28.3015  -29.6435 H   0  0  0  0  0  0  0  0  0  0  0  0
    5.0417  -27.2273  -27.4718 N   0  0  0  0  0  0  0  0  0  0  0  0
    5.2136  -26.0005  -27.9958 C   0  0  0  0  0  0  0  0  0  0  0  0
    6.0562  -25.2817  -27.1989 N   0  0  0  0  0  0  0  0  0  0  0  0
    6.3806  -26.1108  -26.1891 C   0  0  0  0  0  0  0  0  0  0  0  0
    7.1947  -25.9861  -25.0569 C   0  0  0  0  0  0  0  0  0  0  0  0
    7.8095  -24.8982  -24.8336 O   0  0  0  0  0  0  0  0  0  0  0  0
    7.3336  -27.0287  -24.1876 N   0  0  0  0  0  0  0  0  0  0  0  0
    6.7007  -28.1994  -24.3853 C   0  0  0  0  0  0  0  0  0  0  0  0
    6.8187  -29.3098  -23.5040 N   0  0  0  0  0  0  0  0  0  0  0  0
    5.9121  -28.3440  -25.4669 N   0  0  0  0  0  0  0  0  0  0  0  0
    5.7584  -27.3321  -26.3388 C   0  0  0  0  0  0  0  0  0  0  0  0
    7.9477  -26.9207  -23.3424 H   0  0  0  0  0  0  0  0  0  0  0  0
    7.4988  -30.0819  -23.6188 H   0  0  0  0  0  0  0  0  0  0  0  0
    6.1643  -29.3525  -22.6685 H   0  0  0  0  0  0  0  0  0  0  0  0
    1.8020  -30.6847  -27.2309 C   0  0  0  0  0  0  0  0  0  0  0  0
    2.3082  -31.9571  -27.1668 O   0  0  0  0  0  0  0  0  0  0  0  0
    1.9991  -32.6289  -25.6466 P   0  0  0  0  0  0  0  0  0  0  0  0
    1.1120  -33.8452  -25.8125 O   0  0  0  0  0  0  0  0  0  0  0  0
    1.1377  -31.5420  -24.6758 O   0  0  0  0  0  0  0  0  0  0  0  0
    0.5271  -31.0354  -25.2826 H   0  0  0  0  0  0  0  0  0  0  0  0
    3.4049  -33.1719  -24.8849 O   0  0  0  0  0  0  0  0  0  0  0  0
    4.6404  -32.0497  -24.9462 P   0  0  0  0  0  0  0  0  0  0  0  0
    5.6368  -32.2132  -23.8034 O   0  0  0  0  0  0  0  0  0  0  0  0
    4.0656  -30.4581  -24.9041 O   0  0  0  0  0  0  0  0  0  0  0  0
    4.3968  -29.9223  -25.6546 H   0  0  0  0  0  0  0  0  0  0  0  0
    5.5162  -32.3518  -26.3723 O   0  0  0  0  0  0  0  0  0  0  0  0
    5.9920  -33.9841  -26.3138 P   0  0  0  0  0  0  0  0  0  0  0  0
    6.8095  -34.3261  -27.5356 O   0  0  0  0  0  0  0  0  0  0  0  0
    4.6627  -35.0109  -26.2748 O   0  0  0  0  0  0  0  0  0  0  0  0
    6.9779  -34.2316  -24.9477 O   0  0  0  0  0  0  0  0  0  0  0  0
    4.6370  -35.6619  -27.0137 H   0  0  0  0  0  0  0  0  0  0  0  0
    7.0618  -33.3798  -24.4407 H   0  0  0  0  0  0  0  0  0  0  0  0
 36 37  2  0  0  0
 36 38  1  0  0  0
 36 39  1  0  0  0
 36 35  1  0  0  0
 38 40  1  0  0  0
 39 41  1  0  0  0
 31 35  1  0  0  0
 31 32  2  0  0  0
 31 33  1  0  0  0
 31 30  1  0  0  0
 33 34  1  0  0  0
 26 30  1  0  0  0
 26 27  2  0  0  0
 26 28  1  0  0  0
 26 25  1  0  0  0
 28 29  1  0  0  0
 25 24  1  0  0  0
 24  1  1  0  0  0
  1  2  1  0  0  0
  1  3  1  0  0  0
  2  7  1  0  0  0
  3  4  1  0  0  0
  3  5  1  0  0  0
  4  8  1  0  0  0
  5  6  1  0  0  0
  5  7  1  0  0  0
  6  9  1  0  0  0
  7 10  1  0  0  0
 10 11  1  0  0  0
 10 20  1  0  0  0
 11 12  2  0  0  0
 12 13  2  0  0  0
 13 14  1  0  0  0
 13 20  2  0  0  0
 14 15  2  0  0  0
 14 16  1  0  0  0
 16 17  1  0  0  0
 16 21  1  0  0  0
 17 18  1  0  0  0
 17 19  2  0  0  0
 18 22  1  0  0  0
 18 23  1  0  0  0
 19 20  2  0  0  0
M  END
> <minimizedAffinity>
-10.25425

$$$$
GTP


 41 43  0  0  0  0  0  0  0  0999 V2000
    5.0141  -27.6254  -26.8553 C   0  0  0  0  0  0  0  0  0  0  0  0
    5.0093  -28.4201  -25.7115 O   0  0  0  0  0  0  0  0  0  0  0  0
    6.4562  -27.5900  -27.3328 C   0  0  0  0  0  0  0  0  0  0  0  0
    6.8643  -26.2772  -27.5395 O   0  0  0  0  0  0  0  0  0  0  0  0
    7.1979  -28.1055  -26.0985 C   0  0  0  0  0  0  0  0  0  0  0  0
    8.3188  -27.3325  -25.8033 O   0  0  0  0  0  0  0  0  0  0  0  0
    6.1147  -27.9036  -25.0380 C   0  0  0  0  0  0  0  0  0  0  0  0
    6.4339  -25.7428  -26.8048 H   0  0  0  0  0  0  0  0  0  0  0  0
    8.3044  -27.1743  -24.8269 H   0  0  0  0  0  0  0  0  0  0  0  0
    6.4090  -28.5858  -23.8080 N   0  0  0  0  0  0  0  0  0  0  0  0
    5.8811  -29.7773  -23.4755 C   0  0  0  0  0  0  0  0  0  0  0  0
    6.3536  -30.1569  -22.2531 N   0  0  0  0  0  0  0  0  0  0  0  0
    7.1749  -29.1623  -21.8674 C   0  0  0  0  0  0  0  0  0  0  0  0
    7.9609  -28.9412  -20.7301 C   0  0  0  0  0  0  0  0  0  0  0  0
    7.9801  -29.7993  -19.7949 O   0  0  0  0  0  0  0  0  0  0  0  0
    8.7100  -27.8062  -20.6180 N   0  0  0  0  0  0  0  0  0  0  0  0
    8.7195  -26.8704  -21.5847 C   0  0  0  0  0  0  0  0  0  0  0  0
    9.4857  -25.6745  -21.5066 N   0  0  0  0  0  0  0  0  0  0  0  0
    7.9719  -27.0601  -22.6882 N   0  0  0  0  0  0  0  0  0  0  0  0
    7.2250  -28.1698  -22.8233 C   0  0  0  0  0  0  0  0  0  0  0  0
    9.2948  -27.6537  -19.7589 H   0  0  0  0  0  0  0  0  0  0  0  0
    9.1299  -24.7705  -21.1484 H   0  0  0  0  0  0  0  0  0  0  0  0
   10.4942  -25.7080  -21.8384 H   0  0  0  0  0  0  0  0  0  0  0  0
    4.0780  -28.1526  -27.9172 C   0  0  0  0  0  0  0  0  0  0  0  0
    3.4382  -29.3069  -27.5459 O   0  0  0  0  0  0  0  0  0  0  0  0
    3.8690  -30.5692  -28.5846 P   0  0  0  0  0  0  0  0  0  0  0  0
    4.9506  -30.0875  -29.5291 O   0  0  0  0  0  0  0  0  0  0  0  0
    2.5573  -31.0198  -29.5553 O   0  0  0  0  0  0  0  0  0  0  0  0
    2.0421  -30.1862  -29.7481 H   0  0  0  0  0  0  0  0  0  0  0  0
    4.5201  -31.8896  -27.7576 O   0  0  0  0  0  0  0  0  0  0  0  0
    3.5978  -32.3367  -26.4387 P   0  0  0  0  0  0  0  0  0  0  0  0
    2.1937  -32.7841  -26.8311 O   0  0  0  0  0  0  0  0  0  0  0  0
    3.4427  -31.0856  -25.3092 O   0  0  0  0  0  0  0  0  0  0  0  0
    3.7168  -31.3598  -24.4094 H   0  0  0  0  0  0  0  0  0  0  0  0
    4.3439  -33.7008  -25.7498 O   0  0  0  0  0  0  0  0  0  0  0  0
    6.0183  -33.5078  -25.9809 P   0  0  0  0  0  0  0  0  0  0  0  0
    6.7755  -34.2658  -24.9179 O   0  0  0  0  0  0  0  0  0  0  0  0
    6.4695  -31.8921  -25.8870 O   0  0  0  0  0  0  0  0  0  0  0  0
    6.4545  -34.1626  -27.4910 O   0  0  0  0  0  0  0  0  0  0  0  0
    7.1448  -31.7039  -25.1950 H   0  0  0  0  0  0  0  0  0  0  0  0
    5.6420  -34.5071  -27.9501 H   0  0  0  0  0  0  0  0  0  0  0  0
 36 37  2  0  0  0
 36 38  1  0  0  0
 36 39  1  0  0  0
 36 35  1  0  0  0
 38 40  1  0  0  0
 39 41  1  0  0  0
 31 35  1  0  0  0
 31 32  2  0  0  0
 31 33  1  0  0  0
 31 30  1  0  0  0
 33 34  1  0  0  0
 26 30  1  0  0  0
 26 27  2  0  0  0
 26 28  1  0  0  0
 26 25  1  0  0  0
 28 29  1  0  0  0
 25 24  1  0  0  0
 24  1  1  0  0  0
  1  2  1  0  0  0
  1  3  1  0  0  0
  2  7  1  0  0  0
  3  4  1  0  0  0
  3  5  1  0  0  0
  4  8  1  0  0  0
  5  6  1  0  0  0
  5  7  1  0  0  0
  6  9  1  0  0  0
  7 10  1  0  0  0
 10 11  1  0  0  0
 10 20  1  0  0  0
 11 12  2  0  0  0
 12 13  2  0  0  0
 13 14  1  0  0  0
 13 20  2  0  0  0
 14 15  2  0  0  0
 14 16  1  0  0  0
 16 17  1  0  0  0
 16 21  1  0  0  0
 17 18  1  0  0  0
 17 19  2  0  0  0
 18 22  1  0  0  0
 18 23  1  0  0  0
 19 20  2  0  0  0
M  END
> <minimizedAffinity>
-9.99684

$$$$
GTP


 41 43  0  0  0  0  0  0  0  0999 V2000
    3.6023  -28.8132  -28.2020 C   0  0  0  0  0  0  0  0  0  0  0  0
    3.7617  -29.0914  -26.8466 O   0  0  0  0  0  0  0  0  0  0  0  0
    3.3219  -30.1480  -28.8718 C   0  0  0  0  0  0  0  0  0  0  0  0
    4.1729  -30.3326  -29.9555 O   0  0  0  0  0  0  0  0  0  0  0  0
    3.7553  -31.1313  -27.7834 C   0  0  0  0  0  0  0  0  0  0  0  0
    4.5372  -32.1644  -28.2955 O   0  0  0  0  0  0  0  0  0  0  0  0
    4.6011  -30.2020  -26.9118 C   0  0  0  0  0  0  0  0  0  0  0  0
    5.0570  -29.9468  -29.6722 H   0  0  0  0  0  0  0  0  0  0  0  0
    5.3011  -32.2746  -27.6768 H   0  0  0  0  0  0  0  0  0  0  0  0
    4.9039  -30.7702  -25.6270 N   0  0  0  0  0  0  0  0  0  0  0  0
    4.4913  -31.9902  -25.2393 C   0  0  0  0  0  0  0  0  0  0  0  0
    4.9388  -32.2389  -23.9746 N   0  0  0  0  0  0  0  0  0  0  0  0
    5.6270  -31.1374  -23.6203 C   0  0  0  0  0  0  0  0  0  0  0  0
    6.3252  -30.7607  -22.4667 C   0  0  0  0  0  0  0  0  0  0  0  0
    6.3888  -31.5521  -21.4762 O   0  0  0  0  0  0  0  0  0  0  0  0
    6.9405  -29.5448  -22.3977 N   0  0  0  0  0  0  0  0  0  0  0  0
    6.8986  -28.6751  -23.4234 C   0  0  0  0  0  0  0  0  0  0  0  0
    7.5261  -27.3989  -23.3917 N   0  0  0  0  0  0  0  0  0  0  0  0
    6.2334  -29.0142  -24.5438 N   0  0  0  0  0  0  0  0  0  0  0  0
    5.6186  -30.2062  -24.6372 C   0  0  0  0  0  0  0  0  0  0  0  0
    7.4606  -29.2757  -21.5257 H   0  0  0  0  0  0  0  0  0  0  0  0
    7.0569  -26.5198  -23.1109 H   0  0  0  0  0  0  0  0  0  0  0  0
    8.5480  -27.3407  -23.6755 H   0  0  0  0  0  0  0  0  0  0  0  0
    2.4991  -27.8115  -28.4502 C   0  0  0  0  0  0  0  0  0  0  0  0
    2.4258  -26.8411  -27.4846 O   0  0  0  0  0  0  0  0  0  0  0  0
    2.5680  -25.3104  -28.1879 P   0  0  0  0  0  0  0  0  0  0  0  0
    1.3316  -24.4982  -27.8631 O   0  0  0  0  0  0  0  0  0  0  0  0
    2.6273  -25.4303  -29.8755 O   0  0  0  0  0  0  0  0  0  0  0  0
    2.0369  -26.1944  -30.1308 H   0  0  0  0  0  0  0  0  0  0  0  0
    3.8781  -24.4393  -27.5746 O   0  0  0  0  0  0  0  0  0  0  0  0
    5.2520  -25.3760  -27.4172 P   0  0  0  0  0  0  0  0  0  0  0  0
    5.5413  -26.2048  -28.6642 O   0  0  0  0  0  0  0  0  0  0  0  0
    5.1583  -26.4388  -26.1031 O   0  0  0  0  0  0  0  0  0  0  0  0
    5.9204  -26.3466  -25.4942 H   0  0  0  0  0  0  0  0  0  0  0  0
    6.5657  -24.3083  -27.2547 O   0  0  0  0  0  0  0  0  0  0  0  0
    7.4376  -24.8155  -25.8847 P   0  0  0  0  0  0  0  0  0  0  0  0
    7.8818  -26.2475  -26.0583 O   0  0  0  0  0  0  0  0  0  0  0  0
    6.5008  -24.7278  -24.4927 O   0  0  0  0  0  0  0  0  0  0  0  0
    8.8361  -23.8574  -25.7245 O   0  0  0  0  0  0  0  0  0  0  0  0
    6.4090  -25.5853  -24.0166 H   0  0  0  0  0  0  0  0  0  0  0  0
    8.8556  -23.1755  -26.4486 H   0  0  0  0  0  0  0  0  0  0  0  0
 36 37  2  0  0  0
 36 38  1  0  0  0
 36 39  1  0  0  0
 36 35  1  0  0  0
 38 40  1  0  0  0
 39 41  1  0  0  0
 31 35  1  0  0  0
 31 32  2  0  0  0
 31 33  1  0  0  0
 31 30  1  0  0  0
 33 34  1  0  0  0
 26 30  1  0  0  0
 26 27  2  0  0  0
 26 28  1  0  0  0
 26 25  1  0  0  0
 28 29  1  0  0  0
 25 24  1  0  0  0
 24  1  1  0  0  0
  1  2  1  0  0  0
  1  3  1  0  0  0
  2  7  1  0  0  0
  3  4  1  0  0  0
  3  5  1  0  0  0
  4  8  1  0  0  0
  5  6  1  0  0  0
  5  7  1  0  0  0
  6  9  1  0  0  0
  7 10  1  0  0  0
 10 11  1  0  0  0
 10 20  1  0  0  0
 11 12  2  0  0  0
 12 13  2  0  0  0
 13 14  1  0  0  0
 13 20  2  0  0  0
 14 15  2  0  0  0
 14 16  1  0  0  0
 16 17  1  0  0  0
 16 21  1  0  0  0
 17 18  1  0  0  0
 17 19  2  0  0  0
 18 22  1  0  0  0
 18 23  1  0  0  0
 19 20  2  0  0  0
M  END
> <minimizedAffinity>
-9.98228

$$$$
GTP


 41 43  0  0  0  0  0  0  0  0999 V2000
    8.3740  -27.3959  -20.8748 C   0  0  0  0  0  0  0  0  0  0  0  0
    8.2204  -27.3975  -22.2590 O   0  0  0  0  0  0  0  0  0  0  0  0
    8.1742  -28.8355  -20.4311 C   0  0  0  0  0  0  0  0  0  0  0  0
    7.2421  -28.8985  -19.4016 O   0  0  0  0  0  0  0  0  0  0  0  0
    7.5211  -29.4479  -21.6712 C   0  0  0  0  0  0  0  0  0  0  0  0
    6.4215  -30.2386  -21.3444 O   0  0  0  0  0  0  0  0  0  0  0  0
    7.0699  -28.1738  -22.3866 C   0  0  0  0  0  0  0  0  0  0  0  0
    6.5455  -28.2094  -19.6268 H   0  0  0  0  0  0  0  0  0  0  0  0
    5.7026  -30.0004  -21.9809 H   0  0  0  0  0  0  0  0  0  0  0  0
    6.6843  -28.4106  -23.7505 N   0  0  0  0  0  0  0  0  0  0  0  0
    6.1132  -29.5530  -24.1724 C   0  0  0  0  0  0  0  0  0  0  0  0
    5.8682  -29.4689  -25.5121 N   0  0  0  0  0  0  0  0  0  0  0  0
    6.3074  -28.2493  -25.8757 C   0  0  0  0  0  0  0  0  0  0  0  0
    6.3456  -27.5563  -27.0916 C   0  0  0  0  0  0  0  0  0  0  0  0
    5.8951  -28.0997  -28.1466 O   0  0  0  0  0  0  0  0  0  0  0  0
    6.8654  -26.2961  -27.1525 N   0  0  0  0  0  0  0  0  0  0  0  0
    7.3538  -25.6822  -26.0594 C   0  0  0  0  0  0  0  0  0  0  0  0
    7.9037  -24.3705  -26.0803 N   0  0  0  0  0  0  0  0  0  0  0  0
    7.3282  -26.3280  -24.8783 N   0  0  0  0  0  0  0  0  0  0  0  0
    6.8215  -27.5703  -24.7913 C   0  0  0  0  0  0  0  0  0  0  0  0
    6.8876  -25.7884  -28.0717 H   0  0  0  0  0  0  0  0  0  0  0  0
    8.9101  -24.1567  -26.1961 H   0  0  0  0  0  0  0  0  0  0  0  0
    7.2375  -23.5508  -25.9695 H   0  0  0  0  0  0  0  0  0  0  0  0
    9.7198  -26.8544  -20.4534 C   0  0  0  0  0  0  0  0  0  0  0  0
   10.1887  -25.8707  -21.2852 O   0  0  0  0  0  0  0  0  0  0  0  0
   10.4040  -24.4337  -20.4212 P   0  0  0  0  0  0  0  0  0  0  0  0
   11.8665  -24.2892  -20.0551 O   0  0  0  0  0  0  0  0  0  0  0  0
    9.5512  -24.4805  -18.9595 O   0  0  0  0  0  0  0  0  0  0  0  0
    9.5822  -25.4257  -18.6383 H   0  0  0  0  0  0  0  0  0  0  0  0
   10.0101  -23.0687  -21.3337 O   0  0  0  0  0  0  0  0  0  0  0  0
    8.4597  -23.1374  -21.9514 P   0  0  0  0  0  0  0  0  0  0  0  0
    7.3927  -23.0511  -20.8653 O   0  0  0  0  0  0  0  0  0  0  0  0
    8.1819  -24.5545  -22.8344 O   0  0  0  0  0  0  0  0  0  0  0  0
    7.8527  -24.3715  -23.7389 H   0  0  0  0  0  0  0  0  0  0  0  0
    8.2487  -21.7556  -22.9199 O   0  0  0  0  0  0  0  0  0  0  0  0
    9.5405  -21.7360  -24.0268 P   0  0  0  0  0  0  0  0  0  0  0  0
   10.5638  -20.7096  -23.6056 O   0  0  0  0  0  0  0  0  0  0  0  0
    9.0180  -21.3429  -25.5745 O   0  0  0  0  0  0  0  0  0  0  0  0
   10.3045  -23.2577  -24.0231 O   0  0  0  0  0  0  0  0  0  0  0  0
    9.4580  -20.5488  -25.9567 H   0  0  0  0  0  0  0  0  0  0  0  0
    9.8311  -23.8648  -23.3930 H   0  0  0  0  0  0  0  0  0  0  0  0
 36 37  2  0  0  0
 36 38  1  0  0  0
 36 39  1  0  0  0
 36 35  1  0  0  0
 38 40  1  0  0  0
 39 41  1  0  0  0
 31 35  1  0  0  0
 31 32  2  0  0  0
 31 33  1  0  0  0
 31 30  1  0  0  0
 33 34  1  0  0  0
 26 30  1  0  0  0
 26 27  2  0  0  0
 26 28  1  0  0  0
 26 25  1  0  0  0
 28 29  1  0  0  0
 25 24  1  0  0  0
 24  1  1  0  0  0
  1  2  1  0  0  0
  1  3  1  0  0  0
  2  7  1  0  0  0
  3  4  1  0  0  0
  3  5  1  0  0  0
  4  8  1  0  0  0
  5  6  1  0  0  0
  5  7  1  0  0  0
  6  9  1  0  0  0
  7 10  1  0  0  0
 10 11  1  0  0  0
 10 20  1  0  0  0
 11 12  2  0  0  0
 12 13  2  0  0  0
 13 14  1  0  0  0
 13 20  2  0  0  0
 14 15  2  0  0  0
 14 16  1  0  0  0
 16 17  1  0  0  0
 16 21  1  0  0  0
 17 18  1  0  0  0
 17 19  2  0  0  0
 18 22  1  0  0  0
 18 23  1  0  0  0
 19 20  2  0  0  0
M  END
> <minimizedAffinity>
-9.96766

$$$$
GTP


 41 43  0  0  0  0  0  0  0  0999 V2000
    5.3368  -30.7348  -26.2608 C   0  0  0  0  0  0  0  0  0  0  0  0
    5.6072  -29.3706  -26.3352 O   0  0  0  0  0  0  0  0  0  0  0  0
    5.0508  -31.0243  -24.7968 C   0  0  0  0  0  0  0  0  0  0  0  0
    5.8232  -32.0929  -24.3560 O   0  0  0  0  0  0  0  0  0  0  0  0
    5.5974  -29.7634  -24.1252 C   0  0  0  0  0  0  0  0  0  0  0  0
    6.3721  -30.0627  -23.0066 O   0  0  0  0  0  0  0  0  0  0  0  0
    6.4755  -29.2239  -25.2551 C   0  0  0  0  0  0  0  0  0  0  0  0
    6.7129  -31.9880  -24.8122 H   0  0  0  0  0  0  0  0  0  0  0  0
    7.1838  -29.5004  -23.0658 H   0  0  0  0  0  0  0  0  0  0  0  0
    6.8931  -27.8669  -25.0330 N   0  0  0  0  0  0  0  0  0  0  0  0
    7.4901  -27.4498  -23.9023 C   0  0  0  0  0  0  0  0  0  0  0  0
    7.7617  -26.1162  -23.9988 N   0  0  0  0  0  0  0  0  0  0  0  0
    7.3116  -25.7511  -25.2140 C   0  0  0  0  0  0  0  0  0  0  0  0
    7.2883  -24.5390  -25.9144 C   0  0  0  0  0  0  0  0  0  0  0  0
    7.7689  -23.4903  -25.3848 O   0  0  0  0  0  0  0  0  0  0  0  0
    6.7508  -24.4752  -27.1670 N   0  0  0  0  0  0  0  0  0  0  0  0
    6.2305  -25.5617  -27.7662 C   0  0  0  0  0  0  0  0  0  0  0  0
    5.6612  -25.5375  -29.0697 N   0  0  0  0  0  0  0  0  0  0  0  0
    6.2413  -26.7390  -27.1132 N   0  0  0  0  0  0  0  0  0  0  0  0
    6.7648  -26.8287  -25.8781 C   0  0  0  0  0  0  0  0  0  0  0  0
    6.7401  -23.5590  -27.6804 H   0  0  0  0  0  0  0  0  0  0  0  0
    4.6543  -25.4020  -29.2691 H   0  0  0  0  0  0  0  0  0  0  0  0
    6.3125  -25.6674  -29.8986 H   0  0  0  0  0  0  0  0  0  0  0  0
    4.1855  -31.1352  -27.1532 C   0  0  0  0  0  0  0  0  0  0  0  0
    4.5635  -31.3579  -28.4521 O   0  0  0  0  0  0  0  0  0  0  0  0
    4.1910  -30.0115  -29.4040 P   0  0  0  0  0  0  0  0  0  0  0  0
    4.3611  -30.3740  -30.8647 O   0  0  0  0  0  0  0  0  0  0  0  0
    5.2730  -28.7455  -29.1000 O   0  0  0  0  0  0  0  0  0  0  0  0
    6.1599  -29.1640  -28.9109 H   0  0  0  0  0  0  0  0  0  0  0  0
    2.5852  -29.5208  -29.2247 O   0  0  0  0  0  0  0  0  0  0  0  0
    2.2448  -28.1226  -30.0726 P   0  0  0  0  0  0  0  0  0  0  0  0
    1.5017  -28.3950  -31.3762 O   0  0  0  0  0  0  0  0  0  0  0  0
    3.6414  -27.2438  -30.4502 O   0  0  0  0  0  0  0  0  0  0  0  0
    3.5911  -26.3145  -30.1437 H   0  0  0  0  0  0  0  0  0  0  0  0
    1.1798  -27.2066  -29.1141 O   0  0  0  0  0  0  0  0  0  0  0  0
    2.1448  -26.3012  -28.0448 P   0  0  0  0  0  0  0  0  0  0  0  0
    1.3159  -25.8343  -26.8730 O   0  0  0  0  0  0  0  0  0  0  0  0
    2.7898  -24.9446  -28.7975 O   0  0  0  0  0  0  0  0  0  0  0  0
    3.3873  -27.2931  -27.4351 O   0  0  0  0  0  0  0  0  0  0  0  0
    2.5524  -24.0935  -28.3621 H   0  0  0  0  0  0  0  0  0  0  0  0
    3.3185  -28.1984  -27.8417 H   0  0  0  0  0  0  0  0  0  0  0  0
 36 37  2  0  0  0
 36 38  1  0  0  0
 36 39  1  0  0  0
 36 35  1  0  0  0
 38 40  1  0  0  0
 39 41  1  0  0  0
 31 35  1  0  0  0
 31 32  2  0  0  0
 31 33  1  0  0  0
 31 30  1  0  0  0
 33 34  1  0  0  0
 26 30  1  0  0  0
 26 27  2  0  0  0
 26 28  1  0  0  0
 26 25  1  0  0  0
 28 29  1  0  0  0
 25 24  1  0  0  0
 24  1  1  0  0  0
  1  2  1  0  0  0
  1  3  1  0  0  0
  2  7  1  0  0  0
  3  4  1  0  0  0
  3  5  1  0  0  0
  4  8  1  0  0  0
  5  6  1  0  0  0
  5  7  1  0  0  0
  6  9  1  0  0  0
  7 10  1  0  0  0
 10 11  1  0  0  0
 10 20  1  0  0  0
 11 12  2  0  0  0
 12 13  2  0  0  0
 13 14  1  0  0  0
 13 20  2  0  0  0
 14 15  2  0  0  0
 14 16  1  0  0  0
 16 17  1  0  0  0
 16 21  1  0  0  0
 17 18  1  0  0  0
 17 19  2  0  0  0
 18 22  1  0  0  0
 18 23  1  0  0  0
 19 20  2  0  0  0
M  END
> <minimizedAffinity>
-9.95414

$$$$
GTP


 41 43  0  0  0  0  0  0  0  0999 V2000
    7.5165  -25.1872  -26.2222 C   0  0  0  0  0  0  0  0  0  0  0  0
    7.6753  -26.2032  -25.3169 O   0  0  0  0  0  0  0  0  0  0  0  0
    6.1885  -25.3603  -26.9240 C   0  0  0  0  0  0  0  0  0  0  0  0
    6.4298  -25.9023  -28.1711 O   0  0  0  0  0  0  0  0  0  0  0  0
    5.5786  -26.4784  -26.0671 C   0  0  0  0  0  0  0  0  0  0  0  0
    4.6550  -27.2233  -26.7718 O   0  0  0  0  0  0  0  0  0  0  0  0
    6.8678  -27.2549  -25.7765 C   0  0  0  0  0  0  0  0  0  0  0  0
    7.4022  -25.9429  -28.4120 H   0  0  0  0  0  0  0  0  0  0  0  0
    3.7767  -27.0823  -26.2939 H   0  0  0  0  0  0  0  0  0  0  0  0
    6.6688  -28.2738  -24.7981 N   0  0  0  0  0  0  0  0  0  0  0  0
    6.0235  -29.4432  -24.9591 C   0  0  0  0  0  0  0  0  0  0  0  0
    6.0619  -30.1181  -23.7873 N   0  0  0  0  0  0  0  0  0  0  0  0
    6.7281  -29.3934  -22.8674 C   0  0  0  0  0  0  0  0  0  0  0  0
    7.0608  -29.5944  -21.5292 C   0  0  0  0  0  0  0  0  0  0  0  0
    6.6872  -30.6716  -20.9974 O   0  0  0  0  0  0  0  0  0  0  0  0
    7.7542  -28.6573  -20.8574 N   0  0  0  0  0  0  0  0  0  0  0  0
    8.1287  -27.5105  -21.4946 C   0  0  0  0  0  0  0  0  0  0  0  0
    8.8707  -26.4955  -20.7949 N   0  0  0  0  0  0  0  0  0  0  0  0
    7.8046  -27.3138  -22.7998 N   0  0  0  0  0  0  0  0  0  0  0  0
    7.1093  -28.2253  -23.5175 C   0  0  0  0  0  0  0  0  0  0  0  0
    8.0029  -28.8175  -19.8415 H   0  0  0  0  0  0  0  0  0  0  0  0
    9.7395  -26.0791  -21.2163 H   0  0  0  0  0  0  0  0  0  0  0  0
    8.5663  -26.1455  -19.8502 H   0  0  0  0  0  0  0  0  0  0  0  0
    7.5331  -23.8289  -25.5527 C   0  0  0  0  0  0  0  0  0  0  0  0
    8.7542  -23.5457  -24.9877 O   0  0  0  0  0  0  0  0  0  0  0  0
    8.8372  -22.0757  -24.1973 P   0  0  0  0  0  0  0  0  0  0  0  0
    7.4835  -21.6065  -23.7265 O   0  0  0  0  0  0  0  0  0  0  0  0
    9.4061  -20.9154  -25.3173 O   0  0  0  0  0  0  0  0  0  0  0  0
    8.8260  -20.9366  -26.1144 H   0  0  0  0  0  0  0  0  0  0  0  0
    9.8789  -22.1647  -22.8791 O   0  0  0  0  0  0  0  0  0  0  0  0
    9.1286  -23.0288  -21.6258 P   0  0  0  0  0  0  0  0  0  0  0  0
   10.1446  -23.7636  -20.7699 O   0  0  0  0  0  0  0  0  0  0  0  0
    8.0481  -24.0989  -22.3526 O   0  0  0  0  0  0  0  0  0  0  0  0
    8.5347  -24.8163  -22.8318 H   0  0  0  0  0  0  0  0  0  0  0  0
    8.2456  -22.0079  -20.6201 O   0  0  0  0  0  0  0  0  0  0  0  0
    6.7443  -22.6621  -20.1847 P   0  0  0  0  0  0  0  0  0  0  0  0
    6.2519  -21.8269  -19.0035 O   0  0  0  0  0  0  0  0  0  0  0  0
    6.9268  -24.2843  -19.7058 O   0  0  0  0  0  0  0  0  0  0  0  0
    5.6268  -22.5334  -21.4204 O   0  0  0  0  0  0  0  0  0  0  0  0
    7.2081  -24.2393  -18.7481 H   0  0  0  0  0  0  0  0  0  0  0  0
    6.0707  -22.4409  -22.2807 H   0  0  0  0  0  0  0  0  0  0  0  0
 36 37  2  0  0  0
 36 38  1  0  0  0
 36 39  1  0  0  0
 36 35  1  0  0  0
 38 40  1  0  0  0
 39 41  1  0  0  0
 31 35  1  0  0  0
 31 32  2  0  0  0
 31 33  1  0  0  0
 31 30  1  0  0  0
 33 34  1  0  0  0
 26 30  1  0  0  0
 26 27  2  0  0  0
 26 28  1  0  0  0
 26 25  1  0  0  0
 28 29  1  0  0  0
 25 24  1  0  0  0
 24  1  1  0  0  0
  1  2  1  0  0  0
  1  3  1  0  0  0
  2  7  1  0  0  0
  3  4  1  0  0  0
  3  5  1  0  0  0
  4  8  1  0  0  0
  5  6  1  0  0  0
  5  7  1  0  0  0
  6  9  1  0  0  0
  7 10  1  0  0  0
 10 11  1  0  0  0
 10 20  1  0  0  0
 11 12  2  0  0  0
 12 13  2  0  0  0
 13 14  1  0  0  0
 13 20  2  0  0  0
 14 15  2  0  0  0
 14 16  1  0  0  0
 16 17  1  0  0  0
 16 21  1  0  0  0
 17 18  1  0  0  0
 17 19  2  0  0  0
 18 22  1  0  0  0
 18 23  1  0  0  0
 19 20  2  0  0  0
M  END
> <minimizedAffinity>
-10.54589

$$$$
GTP


 41 43  0  0  0  0  0  0  0  0999 V2000
    7.9835  -23.0154  -24.3146 C   0  0  0  0  0  0  0  0  0  0  0  0
    7.5783  -22.5534  -23.0902 O   0  0  0  0  0  0  0  0  0  0  0  0
    9.3138  -22.3850  -24.6598 C   0  0  0  0  0  0  0  0  0  0  0  0
    9.0839  -21.3650  -25.5618 O   0  0  0  0  0  0  0  0  0  0  0  0
    9.6492  -21.7203  -23.3175 C   0  0  0  0  0  0  0  0  0  0  0  0
   10.4837  -20.6324  -23.4745 O   0  0  0  0  0  0  0  0  0  0  0  0
    8.2258  -21.3210  -22.9128 C   0  0  0  0  0  0  0  0  0  0  0  0
    8.1418  -21.3334  -25.9037 H   0  0  0  0  0  0  0  0  0  0  0  0
   11.3316  -20.8719  -22.9811 H   0  0  0  0  0  0  0  0  0  0  0  0
    8.1653  -20.8477  -21.5684 N   0  0  0  0  0  0  0  0  0  0  0  0
    8.6293  -19.6770  -21.0951 C   0  0  0  0  0  0  0  0  0  0  0  0
    8.3715  -19.6194  -19.7683 N   0  0  0  0  0  0  0  0  0  0  0  0
    7.7433  -20.7458  -19.3785 C   0  0  0  0  0  0  0  0  0  0  0  0
    7.2557  -21.2121  -18.1592 C   0  0  0  0  0  0  0  0  0  0  0  0
    7.4005  -20.4661  -17.1566 O   0  0  0  0  0  0  0  0  0  0  0  0
    6.6585  -22.4156  -18.0863 N   0  0  0  0  0  0  0  0  0  0  0  0
    6.5338  -23.1750  -19.2128 C   0  0  0  0  0  0  0  0  0  0  0  0
    5.8985  -24.4648  -19.1571 N   0  0  0  0  0  0  0  0  0  0  0  0
    7.0092  -22.7208  -20.4023 N   0  0  0  0  0  0  0  0  0  0  0  0
    7.6169  -21.5189  -20.5268 C   0  0  0  0  0  0  0  0  0  0  0  0
    6.2908  -22.7624  -17.1567 H   0  0  0  0  0  0  0  0  0  0  0  0
    5.1515  -24.7257  -19.8497 H   0  0  0  0  0  0  0  0  0  0  0  0
    6.1622  -25.1760  -18.4275 H   0  0  0  0  0  0  0  0  0  0  0  0
    8.1485  -24.5208  -24.3218 C   0  0  0  0  0  0  0  0  0  0  0  0
    7.2205  -25.1390  -25.1264 O   0  0  0  0  0  0  0  0  0  0  0  0
    7.2089  -26.8072  -25.0299 P   0  0  0  0  0  0  0  0  0  0  0  0
    7.7133  -27.3027  -23.6978 O   0  0  0  0  0  0  0  0  0  0  0  0
    8.2793  -27.4038  -26.2225 O   0  0  0  0  0  0  0  0  0  0  0  0
    9.1596  -26.9774  -26.0969 H   0  0  0  0  0  0  0  0  0  0  0  0
    5.6598  -27.4094  -25.2914 O   0  0  0  0  0  0  0  0  0  0  0  0
    5.4870  -27.8278  -26.9270 P   0  0  0  0  0  0  0  0  0  0  0  0
    4.0567  -28.2184  -27.2539 O   0  0  0  0  0  0  0  0  0  0  0  0
    6.5537  -29.0999  -27.2184 O   0  0  0  0  0  0  0  0  0  0  0  0
    6.2475  -29.9247  -26.7637 H   0  0  0  0  0  0  0  0  0  0  0  0
    5.9187  -26.5512  -27.9356 O   0  0  0  0  0  0  0  0  0  0  0  0
    4.8990  -25.2093  -27.7598 P   0  0  0  0  0  0  0  0  0  0  0  0
    4.1038  -25.1162  -29.0614 O   0  0  0  0  0  0  0  0  0  0  0  0
    5.8202  -23.7952  -27.5461 O   0  0  0  0  0  0  0  0  0  0  0  0
    3.8204  -25.4075  -26.4990 O   0  0  0  0  0  0  0  0  0  0  0  0
    6.0707  -23.5096  -28.4703 H   0  0  0  0  0  0  0  0  0  0  0  0
    4.1519  -26.0603  -25.8589 H   0  0  0  0  0  0  0  0  0  0  0  0
 36 37  2  0  0  0
 36 38  1  0  0  0
 36 39  1  0  0  0
 36 35  1  0  0  0
 38 40  1  0  0  0
 39 41  1  0  0  0
 31 35  1  0  0  0
 31 32  2  0  0  0
 31 33  1  0  0  0
 31 30  1  0  0  0
 33 34  1  0  0  0
 26 30  1  0  0  0
 26 27  2  0  0  0
 26 28  1  0  0  0
 26 25  1  0  0  0
 28 29  1  0  0  0
 25 24  1  0  0  0
 24  1  1  0  0  0
  1  2  1  0  0  0
  1  3  1  0  0  0
  2  7  1  0  0  0
  3  4  1  0  0  0
  3  5  1  0  0  0
  4  8  1  0  0  0
  5  6  1  0  0  0
  5  7  1  0  0  0
  6  9  1  0  0  0
  7 10  1  0  0  0
 10 11  1  0  0  0
 10 20  1  0  0  0
 11 12  2  0  0  0
 12 13  2  0  0  0
 13 14  1  0  0  0
 13 20  2  0  0  0
 14 15  2  0  0  0
 14 16  1  0  0  0
 16 17  1  0  0  0
 16 21  1  0  0  0
 17 18  1  0  0  0
 17 19  2  0  0  0
 18 22  1  0  0  0
 18 23  1  0  0  0
 19 20  2  0  0  0
M  END
> <minimizedAffinity>
-10.33256

$$$$
GTP


 41 43  0  0  0  0  0  0  0  0999 V2000
   16.4612  -29.1052  -34.2370 C   0  0  0  0  0  0  0  0  0  0  0  0
   15.6362  -29.1713  -35.3287 O   0  0  0  0  0  0  0  0  0  0  0  0
   15.6292  -29.2655  -32.9846 C   0  0  0  0  0  0  0  0  0  0  0  0
   15.4467  -28.0150  -32.4278 O   0  0  0  0  0  0  0  0  0  0  0  0
   14.2864  -29.6717  -33.6076 C   0  0  0  0  0  0  0  0  0  0  0  0
   13.2200  -29.3411  -32.7965 O   0  0  0  0  0  0  0  0  0  0  0  0
   14.3624  -28.8037  -34.8687 C   0  0  0  0  0  0  0  0  0  0  0  0
   15.9929  -27.2958  -32.8636 H   0  0  0  0  0  0  0  0  0  0  0  0
   12.7863  -30.2199  -32.5530 H   0  0  0  0  0  0  0  0  0  0  0  0
   13.3235  -29.1152  -35.7953 N   0  0  0  0  0  0  0  0  0  0  0  0
   13.2551  -30.1797  -36.6151 C   0  0  0  0  0  0  0  0  0  0  0  0
   12.1084  -30.0977  -37.3282 N   0  0  0  0  0  0  0  0  0  0  0  0
   11.4328  -28.9866  -36.9757 C   0  0  0  0  0  0  0  0  0  0  0  0
   10.2253  -28.4175  -37.3758 C   0  0  0  0  0  0  0  0  0  0  0  0
    9.5670  -29.0236  -38.2601 O   0  0  0  0  0  0  0  0  0  0  0  0
    9.8050  -27.2657  -36.8219 N   0  0  0  0  0  0  0  0  0  0  0  0
   10.5681  -26.6596  -35.8671 C   0  0  0  0  0  0  0  0  0  0  0  0
   10.1372  -25.4274  -35.2617 N   0  0  0  0  0  0  0  0  0  0  0  0
   11.7459  -27.2140  -35.4764 N   0  0  0  0  0  0  0  0  0  0  0  0
   12.2111  -28.3697  -36.0030 C   0  0  0  0  0  0  0  0  0  0  0  0
    8.8869  -26.8401  -37.1311 H   0  0  0  0  0  0  0  0  0  0  0  0
   10.1421  -25.3123  -34.2165 H   0  0  0  0  0  0  0  0  0  0  0  0
    9.8082  -24.6149  -35.8441 H   0  0  0  0  0  0  0  0  0  0  0  0
   17.5122  -30.1953  -34.2587 C   0  0  0  0  0  0  0  0  0  0  0  0
   17.0832  -31.3401  -33.6294 O   0  0  0  0  0  0  0  0  0  0  0  0
   17.4426  -32.7596  -34.4344 P   0  0  0  0  0  0  0  0  0  0  0  0
   17.7088  -32.5295  -35.9009 O   0  0  0  0  0  0  0  0  0  0  0  0
   16.0725  -33.7774  -34.3293 O   0  0  0  0  0  0  0  0  0  0  0  0
   15.2879  -33.2848  -34.6671 H   0  0  0  0  0  0  0  0  0  0  0  0
   18.7777  -33.5157  -33.7440 O   0  0  0  0  0  0  0  0  0  0  0  0
   18.5330  -33.6742  -32.0721 P   0  0  0  0  0  0  0  0  0  0  0  0
   17.2661  -34.4527  -31.7659 O   0  0  0  0  0  0  0  0  0  0  0  0
   18.4628  -32.1128  -31.4412 O   0  0  0  0  0  0  0  0  0  0  0  0
   17.6311  -31.6569  -31.7266 H   0  0  0  0  0  0  0  0  0  0  0  0
   19.8207  -34.4704  -31.3365 O   0  0  0  0  0  0  0  0  0  0  0  0
   20.0162  -34.0294  -29.7121 P   0  0  0  0  0  0  0  0  0  0  0  0
   20.8957  -32.7798  -29.7219 O   0  0  0  0  0  0  0  0  0  0  0  0
   20.7959  -35.2749  -28.8547 O   0  0  0  0  0  0  0  0  0  0  0  0
   18.5592  -33.6399  -28.9927 O   0  0  0  0  0  0  0  0  0  0  0  0
   21.7698  -35.1373  -29.0307 H   0  0  0  0  0  0  0  0  0  0  0  0
   17.8169  -34.0475  -29.4708 H   0  0  0  0  0  0  0  0  0  0  0  0
 36 37  2  0  0  0
 36 38  1  0  0  0
 36 39  1  0  0  0
 36 35  1  0  0  0
 38 40  1  0  0  0
 39 41  1  0  0  0
 31 35  1  0  0  0
 31 32  2  0  0  0
 31 33  1  0  0  0
 31 30  1  0  0  0
 33 34  1  0  0  0
 26 30  1  0  0  0
 26 27  2  0  0  0
 26 28  1  0  0  0
 26 25  1  0  0  0
 28 29  1  0  0  0
 25 24  1  0  0  0
 24  1  1  0  0  0
  1  2  1  0  0  0
  1  3  1  0  0  0
  2  7  1  0  0  0
  3  4  1  0  0  0
  3  5  1  0  0  0
  4  8  1  0  0  0
  5  6  1  0  0  0
  5  7  1  0  0  0
  6  9  1  0  0  0
  7 10  1  0  0  0
 10 11  1  0  0  0
 10 20  1  0  0  0
 11 12  2  0  0  0
 12 13  2  0  0  0
 13 14  1  0  0  0
 13 20  2  0  0  0
 14 15  2  0  0  0
 14 16  1  0  0  0
 16 17  1  0  0  0
 16 21  1  0  0  0
 17 18  1  0  0  0
 17 19  2  0  0  0
 18 22  1  0  0  0
 18 23  1  0  0  0
 19 20  2  0  0  0
M  END
> <minimizedAffinity>
-9.96439

$$$$
GTP


 41 43  0  0  0  0  0  0  0  0999 V2000
    7.6017  -25.1041  -26.1289 C   0  0  0  0  0  0  0  0  0  0  0  0
    7.4637  -26.4505  -25.9166 O   0  0  0  0  0  0  0  0  0  0  0  0
    6.4396  -24.6190  -26.9659 C   0  0  0  0  0  0  0  0  0  0  0  0
    6.8806  -24.4682  -28.2658 O   0  0  0  0  0  0  0  0  0  0  0  0
    5.5538  -25.8724  -26.9427 C   0  0  0  0  0  0  0  0  0  0  0  0
    4.7277  -25.9412  -28.0460 O   0  0  0  0  0  0  0  0  0  0  0  0
    6.6681  -26.9246  -26.9710 C   0  0  0  0  0  0  0  0  0  0  0  0
    7.8727  -24.5697  -28.3696 H   0  0  0  0  0  0  0  0  0  0  0  0
    3.7876  -25.8983  -27.6797 H   0  0  0  0  0  0  0  0  0  0  0  0
    6.1665  -28.2404  -26.7431 N   0  0  0  0  0  0  0  0  0  0  0  0
    5.7136  -29.1106  -27.6637 C   0  0  0  0  0  0  0  0  0  0  0  0
    5.3313  -30.2433  -27.0305 N   0  0  0  0  0  0  0  0  0  0  0  0
    5.5336  -30.1129  -25.7049 C   0  0  0  0  0  0  0  0  0  0  0  0
    5.3252  -30.9434  -24.6054 C   0  0  0  0  0  0  0  0  0  0  0  0
    4.8429  -32.0840  -24.8272 O   0  0  0  0  0  0  0  0  0  0  0  0
    5.6362  -30.5166  -23.3679 N   0  0  0  0  0  0  0  0  0  0  0  0
    6.1563  -29.2670  -23.1972 C   0  0  0  0  0  0  0  0  0  0  0  0
    6.4959  -28.7909  -21.8826 N   0  0  0  0  0  0  0  0  0  0  0  0
    6.3599  -28.4564  -24.2690 N   0  0  0  0  0  0  0  0  0  0  0  0
    6.0635  -28.8394  -25.5320 C   0  0  0  0  0  0  0  0  0  0  0  0
    5.4749  -31.1533  -22.5383 H   0  0  0  0  0  0  0  0  0  0  0  0
    7.4315  -28.3482  -21.6970 H   0  0  0  0  0  0  0  0  0  0  0  0
    5.8225  -28.8723  -21.0779 H   0  0  0  0  0  0  0  0  0  0  0  0
    7.6151  -24.3276  -24.8288 C   0  0  0  0  0  0  0  0  0  0  0  0
    8.8330  -23.7343  -24.5933 O   0  0  0  0  0  0  0  0  0  0  0  0
    8.7563  -22.1195  -24.1705 P   0  0  0  0  0  0  0  0  0  0  0  0
    7.3451  -21.6750  -23.8783 O   0  0  0  0  0  0  0  0  0  0  0  0
    9.3005  -21.2057  -25.5095 O   0  0  0  0  0  0  0  0  0  0  0  0
    8.7721  -21.4628  -26.3015 H   0  0  0  0  0  0  0  0  0  0  0  0
    9.7215  -21.8074  -22.8282 O   0  0  0  0  0  0  0  0  0  0  0  0
    8.9530  -22.3939  -21.4333 P   0  0  0  0  0  0  0  0  0  0  0  0
    9.9543  -22.7102  -20.3368 O   0  0  0  0  0  0  0  0  0  0  0  0
    8.0916  -23.7674  -21.8943 O   0  0  0  0  0  0  0  0  0  0  0  0
    8.7087  -24.5102  -22.1145 H   0  0  0  0  0  0  0  0  0  0  0  0
    7.8527  -21.2757  -20.8232 O   0  0  0  0  0  0  0  0  0  0  0  0
    6.5358  -22.0124  -20.0520 P   0  0  0  0  0  0  0  0  0  0  0  0
    5.8951  -20.9251  -19.1905 O   0  0  0  0  0  0  0  0  0  0  0  0
    7.0725  -23.2882  -19.0630 O   0  0  0  0  0  0  0  0  0  0  0  0
    5.3958  -22.5537  -21.1473 O   0  0  0  0  0  0  0  0  0  0  0  0
    7.3540  -22.8510  -18.2098 H   0  0  0  0  0  0  0  0  0  0  0  0
    5.7944  -22.6887  -22.0240 H   0  0  0  0  0  0  0  0  0  0  0  0
 36 37  2  0  0  0
 36 38  1  0  0  0
 36 39  1  0  0  0
 36 35  1  0  0  0
 38 40  1  0  0  0
 39 41  1  0  0  0
 31 35  1  0  0  0
 31 32  2  0  0  0
 31 33  1  0  0  0
 31 30  1  0  0  0
 33 34  1  0  0  0
 26 30  1  0  0  0
 26 27  2  0  0  0
 26 28  1  0  0  0
 26 25  1  0  0  0
 28 29  1  0  0  0
 25 24  1  0  0  0
 24  1  1  0  0  0
  1  2  1  0  0  0
  1  3  1  0  0  0
  2  7  1  0  0  0
  3  4  1  0  0  0
  3  5  1  0  0  0
  4  8  1  0  0  0
  5  6  1  0  0  0
  5  7  1  0  0  0
  6  9  1  0  0  0
  7 10  1  0  0  0
 10 11  1  0  0  0
 10 20  1  0  0  0
 11 12  2  0  0  0
 12 13  2  0  0  0
 13 14  1  0  0  0
 13 20  2  0  0  0
 14 15  2  0  0  0
 14 16  1  0  0  0
 16 17  1  0  0  0
 16 21  1  0  0  0
 17 18  1  0  0  0
 17 19  2  0  0  0
 18 22  1  0  0  0
 18 23  1  0  0  0
 19 20  2  0  0  0
M  END
> <minimizedAffinity>
-9.94240

$$$$
GTP


 41 43  0  0  0  0  0  0  0  0999 V2000
   16.3022  -28.6532  -34.5518 C   0  0  0  0  0  0  0  0  0  0  0  0
   15.4218  -28.7668  -35.5952 O   0  0  0  0  0  0  0  0  0  0  0  0
   15.5639  -28.9128  -33.2581 C   0  0  0  0  0  0  0  0  0  0  0  0
   15.3088  -27.6955  -32.6580 O   0  0  0  0  0  0  0  0  0  0  0  0
   14.2258  -29.4206  -33.8129 C   0  0  0  0  0  0  0  0  0  0  0  0
   13.1857  -29.2020  -32.9326 O   0  0  0  0  0  0  0  0  0  0  0  0
   14.1511  -28.5218  -35.0523 C   0  0  0  0  0  0  0  0  0  0  0  0
   15.7642  -26.9220  -33.1050 H   0  0  0  0  0  0  0  0  0  0  0  0
   12.8443  -30.1205  -32.6882 H   0  0  0  0  0  0  0  0  0  0  0  0
   13.0889  -28.9022  -35.9251 N   0  0  0  0  0  0  0  0  0  0  0  0
   13.0290  -29.9949  -36.7076 C   0  0  0  0  0  0  0  0  0  0  0  0
   11.8524  -29.9792  -37.3752 N   0  0  0  0  0  0  0  0  0  0  0  0
   11.1491  -28.8830  -37.0303 C   0  0  0  0  0  0  0  0  0  0  0  0
    9.9056  -28.3729  -37.3981 C   0  0  0  0  0  0  0  0  0  0  0  0
    9.2363  -29.0319  -38.2351 O   0  0  0  0  0  0  0  0  0  0  0  0
    9.4635  -27.2200  -36.8637 N   0  0  0  0  0  0  0  0  0  0  0  0
   10.2401  -26.5547  -35.9606 C   0  0  0  0  0  0  0  0  0  0  0  0
    9.7865  -25.3202  -35.3771 N   0  0  0  0  0  0  0  0  0  0  0  0
   11.4531  -27.0516  -35.6014 N   0  0  0  0  0  0  0  0  0  0  0  0
   11.9412  -28.2059  -36.1102 C   0  0  0  0  0  0  0  0  0  0  0  0
    8.5181  -26.8393  -37.1482 H   0  0  0  0  0  0  0  0  0  0  0  0
    9.8287  -25.1706  -34.3370 H   0  0  0  0  0  0  0  0  0  0  0  0
    9.4034  -24.5401  -35.9706 H   0  0  0  0  0  0  0  0  0  0  0  0
   17.4396  -29.6468  -34.6640 C   0  0  0  0  0  0  0  0  0  0  0  0
   17.2175  -30.7745  -33.9094 O   0  0  0  0  0  0  0  0  0  0  0  0
   16.9525  -32.1682  -34.7924 P   0  0  0  0  0  0  0  0  0  0  0  0
   18.1740  -32.5887  -35.5705 O   0  0  0  0  0  0  0  0  0  0  0  0
   15.7239  -31.8340  -35.9338 O   0  0  0  0  0  0  0  0  0  0  0  0
   15.9892  -31.0426  -36.4591 H   0  0  0  0  0  0  0  0  0  0  0  0
   16.4780  -33.4308  -33.7866 O   0  0  0  0  0  0  0  0  0  0  0  0
   16.9820  -33.1060  -32.1990 P   0  0  0  0  0  0  0  0  0  0  0  0
   16.9083  -34.3463  -31.3264 O   0  0  0  0  0  0  0  0  0  0  0  0
   15.9828  -31.8817  -31.6129 O   0  0  0  0  0  0  0  0  0  0  0  0
   15.0628  -32.2191  -31.4696 H   0  0  0  0  0  0  0  0  0  0  0  0
   18.5669  -32.5404  -32.1622 O   0  0  0  0  0  0  0  0  0  0  0  0
   19.6983  -33.7501  -32.5202 P   0  0  0  0  0  0  0  0  0  0  0  0
   19.9800  -34.4624  -31.1980 O   0  0  0  0  0  0  0  0  0  0  0  0
   21.1322  -33.0557  -33.1165 O   0  0  0  0  0  0  0  0  0  0  0  0
   19.0910  -34.8707  -33.6009 O   0  0  0  0  0  0  0  0  0  0  0  0
   21.6458  -32.7876  -32.3024 H   0  0  0  0  0  0  0  0  0  0  0  0
   18.3582  -34.4928  -34.1166 H   0  0  0  0  0  0  0  0  0  0  0  0
 36 37  2  0  0  0
 36 38  1  0  0  0
 36 39  1  0  0  0
 36 35  1  0  0  0
 38 40  1  0  0  0
 39 41  1  0  0  0
 31 35  1  0  0  0
 31 32  2  0  0  0
 31 33  1  0  0  0
 31 30  1  0  0  0
 33 34  1  0  0  0
 26 30  1  0  0  0
 26 27  2  0  0  0
 26 28  1  0  0  0
 26 25  1  0  0  0
 28 29  1  0  0  0
 25 24  1  0  0  0
 24  1  1  0  0  0
  1  2  1  0  0  0
  1  3  1  0  0  0
  2  7  1  0  0  0
  3  4  1  0  0  0
  3  5  1  0  0  0
  4  8  1  0  0  0
  5  6  1  0  0  0
  5  7  1  0  0  0
  6  9  1  0  0  0
  7 10  1  0  0  0
 10 11  1  0  0  0
 10 20  1  0  0  0
 11 12  2  0  0  0
 12 13  2  0  0  0
 13 14  1  0  0  0
 13 20  2  0  0  0
 14 15  2  0  0  0
 14 16  1  0  0  0
 16 17  1  0  0  0
 16 21  1  0  0  0
 17 18  1  0  0  0
 17 19  2  0  0  0
 18 22  1  0  0  0
 18 23  1  0  0  0
 19 20  2  0  0  0
M  END
> <minimizedAffinity>
-9.84983

$$$$
GTP


 41 43  0  0  0  0  0  0  0  0999 V2000
   17.2752  -32.0912  -36.0011 C   0  0  0  0  0  0  0  0  0  0  0  0
   16.1248  -31.5586  -35.4818 O   0  0  0  0  0  0  0  0  0  0  0  0
   17.5389  -31.4637  -37.3513 C   0  0  0  0  0  0  0  0  0  0  0  0
   17.1522  -32.3632  -38.3252 O   0  0  0  0  0  0  0  0  0  0  0  0
   16.4845  -30.3483  -37.3366 C   0  0  0  0  0  0  0  0  0  0  0  0
   16.1027  -29.9821  -38.6112 O   0  0  0  0  0  0  0  0  0  0  0  0
   15.3834  -31.1022  -36.5825 C   0  0  0  0  0  0  0  0  0  0  0  0
   16.9143  -33.2688  -37.9665 H   0  0  0  0  0  0  0  0  0  0  0  0
   16.3776  -29.0150  -38.7056 H   0  0  0  0  0  0  0  0  0  0  0  0
   14.3058  -30.2441  -36.2120 N   0  0  0  0  0  0  0  0  0  0  0  0
   14.1500  -29.5878  -35.0479 C   0  0  0  0  0  0  0  0  0  0  0  0
   12.9952  -28.8853  -35.1039 N   0  0  0  0  0  0  0  0  0  0  0  0
   12.4013  -29.0822  -36.2970 C   0  0  0  0  0  0  0  0  0  0  0  0
   11.2244  -28.6198  -36.8828 C   0  0  0  0  0  0  0  0  0  0  0  0
   10.5083  -27.8412  -36.2019 O   0  0  0  0  0  0  0  0  0  0  0  0
   10.8922  -29.0068  -38.1279 N   0  0  0  0  0  0  0  0  0  0  0  0
   11.7144  -29.8538  -38.8119 C   0  0  0  0  0  0  0  0  0  0  0  0
   11.3781  -30.2801  -40.1443 N   0  0  0  0  0  0  0  0  0  0  0  0
   12.8623  -30.3052  -38.2412 N   0  0  0  0  0  0  0  0  0  0  0  0
   13.2396  -29.9453  -36.9932 C   0  0  0  0  0  0  0  0  0  0  0  0
    9.9969  -28.6511  -38.5655 H   0  0  0  0  0  0  0  0  0  0  0  0
   12.0876  -30.2309  -40.9189 H   0  0  0  0  0  0  0  0  0  0  0  0
   10.4206  -30.6495  -40.3777 H   0  0  0  0  0  0  0  0  0  0  0  0
   18.4699  -31.8299  -35.1079 C   0  0  0  0  0  0  0  0  0  0  0  0
   19.0107  -32.9935  -34.6139 O   0  0  0  0  0  0  0  0  0  0  0  0
   18.2821  -33.5713  -33.2255 P   0  0  0  0  0  0  0  0  0  0  0  0
   18.9874  -34.7864  -32.6772 O   0  0  0  0  0  0  0  0  0  0  0  0
   16.6950  -34.0579  -33.6358 O   0  0  0  0  0  0  0  0  0  0  0  0
   16.7456  -34.6962  -34.3859 H   0  0  0  0  0  0  0  0  0  0  0  0
   18.2319  -32.3805  -32.0379 O   0  0  0  0  0  0  0  0  0  0  0  0
   16.6397  -32.2140  -31.4745 P   0  0  0  0  0  0  0  0  0  0  0  0
   16.1099  -33.5191  -30.9080 O   0  0  0  0  0  0  0  0  0  0  0  0
   15.7139  -31.6905  -32.7821 O   0  0  0  0  0  0  0  0  0  0  0  0
   15.6178  -32.4116  -33.4541 H   0  0  0  0  0  0  0  0  0  0  0  0
   16.5352  -31.0452  -30.2676 O   0  0  0  0  0  0  0  0  0  0  0  0
   15.6342  -29.6927  -30.7476 P   0  0  0  0  0  0  0  0  0  0  0  0
   15.5329  -28.7991  -29.5122 O   0  0  0  0  0  0  0  0  0  0  0  0
   14.0778  -30.1689  -31.2424 O   0  0  0  0  0  0  0  0  0  0  0  0
   16.4005  -28.8311  -31.9570 O   0  0  0  0  0  0  0  0  0  0  0  0
   13.5514  -30.2451  -30.3966 H   0  0  0  0  0  0  0  0  0  0  0  0
   17.0336  -29.3934  -32.4352 H   0  0  0  0  0  0  0  0  0  0  0  0
 36 37  2  0  0  0
 36 38  1  0  0  0
 36 39  1  0  0  0
 36 35  1  0  0  0
 38 40  1  0  0  0
 39 41  1  0  0  0
 31 35  1  0  0  0
 31 32  2  0  0  0
 31 33  1  0  0  0
 31 30  1  0  0  0
 33 34  1  0  0  0
 26 30  1  0  0  0
 26 27  2  0  0  0
 26 28  1  0  0  0
 26 25  1  0  0  0
 28 29  1  0  0  0
 25 24  1  0  0  0
 24  1  1  0  0  0
  1  2  1  0  0  0
  1  3  1  0  0  0
  2  7  1  0  0  0
  3  4  1  0  0  0
  3  5  1  0  0  0
  4  8  1  0  0  0
  5  6  1  0  0  0
  5  7  1  0  0  0
  6  9  1  0  0  0
  7 10  1  0  0  0
 10 11  1  0  0  0
 10 20  1  0  0  0
 11 12  2  0  0  0
 12 13  2  0  0  0
 13 14  1  0  0  0
 13 20  2  0  0  0
 14 15  2  0  0  0
 14 16  1  0  0  0
 16 17  1  0  0  0
 16 21  1  0  0  0
 17 18  1  0  0  0
 17 19  2  0  0  0
 18 22  1  0  0  0
 18 23  1  0  0  0
 19 20  2  0  0  0
M  END
> <minimizedAffinity>
-9.77390

$$$$
GTP


 41 43  0  0  0  0  0  0  0  0999 V2000
   12.4153  -30.1026  -36.6385 C   0  0  0  0  0  0  0  0  0  0  0  0
   11.6660  -29.0389  -36.2097 O   0  0  0  0  0  0  0  0  0  0  0  0
   12.2566  -30.2410  -38.1359 C   0  0  0  0  0  0  0  0  0  0  0  0
   11.3722  -31.2732  -38.3799 O   0  0  0  0  0  0  0  0  0  0  0  0
   11.5092  -28.9366  -38.4457 C   0  0  0  0  0  0  0  0  0  0  0  0
   10.7460  -29.0385  -39.5910 O   0  0  0  0  0  0  0  0  0  0  0  0
   10.6591  -28.8673  -37.1721 C   0  0  0  0  0  0  0  0  0  0  0  0
   11.1275  -31.7969  -37.5606 H   0  0  0  0  0  0  0  0  0  0  0  0
   11.1359  -28.3639  -40.2334 H   0  0  0  0  0  0  0  0  0  0  0  0
    9.9787  -27.6194  -37.0510 N   0  0  0  0  0  0  0  0  0  0  0  0
   10.3353  -26.5672  -36.2923 C   0  0  0  0  0  0  0  0  0  0  0  0
    9.4206  -25.5855  -36.4649 N   0  0  0  0  0  0  0  0  0  0  0  0
    8.4731  -25.9948  -37.3309 C   0  0  0  0  0  0  0  0  0  0  0  0
    7.3243  -25.4095  -37.8597 C   0  0  0  0  0  0  0  0  0  0  0  0
    7.0502  -24.2390  -37.4890 O   0  0  0  0  0  0  0  0  0  0  0  0
    6.5576  -26.0921  -38.7296 N   0  0  0  0  0  0  0  0  0  0  0  0
    6.9123  -27.3592  -39.0898 C   0  0  0  0  0  0  0  0  0  0  0  0
    6.1067  -28.1067  -40.0186 N   0  0  0  0  0  0  0  0  0  0  0  0
    8.0326  -27.9307  -38.5745 N   0  0  0  0  0  0  0  0  0  0  0  0
    8.8353  -27.2859  -37.6973 C   0  0  0  0  0  0  0  0  0  0  0  0
    5.6869  -25.6406  -39.1266 H   0  0  0  0  0  0  0  0  0  0  0  0
    6.5472  -28.5958  -40.8386 H   0  0  0  0  0  0  0  0  0  0  0  0
    5.0634  -28.1833  -39.9031 H   0  0  0  0  0  0  0  0  0  0  0  0
   13.8856  -29.9181  -36.3259 C   0  0  0  0  0  0  0  0  0  0  0  0
   14.6928  -30.4376  -37.3103 O   0  0  0  0  0  0  0  0  0  0  0  0
   16.0217  -31.2839  -36.7534 P   0  0  0  0  0  0  0  0  0  0  0  0
   17.3129  -30.7551  -37.3257 O   0  0  0  0  0  0  0  0  0  0  0  0
   15.8662  -32.9022  -37.2837 O   0  0  0  0  0  0  0  0  0  0  0  0
   15.7424  -32.9022  -38.2620 H   0  0  0  0  0  0  0  0  0  0  0  0
   16.1013  -31.2321  -35.0735 O   0  0  0  0  0  0  0  0  0  0  0  0
   16.9415  -32.5936  -34.5073 P   0  0  0  0  0  0  0  0  0  0  0  0
   18.1157  -32.9372  -35.4063 O   0  0  0  0  0  0  0  0  0  0  0  0
   15.8286  -33.8577  -34.4395 O   0  0  0  0  0  0  0  0  0  0  0  0
   15.5677  -34.1438  -35.3511 H   0  0  0  0  0  0  0  0  0  0  0  0
   17.5352  -32.3450  -32.9520 O   0  0  0  0  0  0  0  0  0  0  0  0
   18.1875  -33.7532  -32.2716 P   0  0  0  0  0  0  0  0  0  0  0  0
   17.0328  -34.4371  -31.5408 O   0  0  0  0  0  0  0  0  0  0  0  0
   19.4151  -33.3559  -31.1629 O   0  0  0  0  0  0  0  0  0  0  0  0
   18.7631  -34.8005  -33.4395 O   0  0  0  0  0  0  0  0  0  0  0  0
   18.9347  -33.1430  -30.3130 H   0  0  0  0  0  0  0  0  0  0  0  0
   18.9619  -34.3246  -34.2640 H   0  0  0  0  0  0  0  0  0  0  0  0
 36 37  2  0  0  0
 36 38  1  0  0  0
 36 39  1  0  0  0
 36 35  1  0  0  0
 38 40  1  0  0  0
 39 41  1  0  0  0
 31 35  1  0  0  0
 31 32  2  0  0  0
 31 33  1  0  0  0
 31 30  1  0  0  0
 33 34  1  0  0  0
 26 30  1  0  0  0
 26 27  2  0  0  0
 26 28  1  0  0  0
 26 25  1  0  0  0
 28 29  1  0  0  0
 25 24  1  0  0  0
 24  1  1  0  0  0
  1  2  1  0  0  0
  1  3  1  0  0  0
  2  7  1  0  0  0
  3  4  1  0  0  0
  3  5  1  0  0  0
  4  8  1  0  0  0
  5  6  1  0  0  0
  5  7  1  0  0  0
  6  9  1  0  0  0
  7 10  1  0  0  0
 10 11  1  0  0  0
 10 20  1  0  0  0
 11 12  2  0  0  0
 12 13  2  0  0  0
 13 14  1  0  0  0
 13 20  2  0  0  0
 14 15  2  0  0  0
 14 16  1  0  0  0
 16 17  1  0  0  0
 16 21  1  0  0  0
 17 18  1  0  0  0
 17 19  2  0  0  0
 18 22  1  0  0  0
 18 23  1  0  0  0
 19 20  2  0  0  0
M  END
> <minimizedAffinity>
-9.60046

$$$$
GTP


 41 43  0  0  0  0  0  0  0  0999 V2000
   17.2924  -32.0950  -35.9663 C   0  0  0  0  0  0  0  0  0  0  0  0
   16.1372  -31.5696  -35.4504 O   0  0  0  0  0  0  0  0  0  0  0  0
   17.5622  -31.4577  -37.3107 C   0  0  0  0  0  0  0  0  0  0  0  0
   17.1842  -32.3519  -38.2929 O   0  0  0  0  0  0  0  0  0  0  0  0
   16.5041  -30.3459  -37.2949 C   0  0  0  0  0  0  0  0  0  0  0  0
   16.1287  -29.9724  -38.5693 O   0  0  0  0  0  0  0  0  0  0  0  0
   15.4010  -31.1083  -36.5525 C   0  0  0  0  0  0  0  0  0  0  0  0
   16.9472  -33.2606  -37.9415 H   0  0  0  0  0  0  0  0  0  0  0  0
   16.4010  -29.0038  -38.6556 H   0  0  0  0  0  0  0  0  0  0  0  0
   14.3183  -30.2562  -36.1827 N   0  0  0  0  0  0  0  0  0  0  0  0
   14.1579  -29.6010  -35.0187 C   0  0  0  0  0  0  0  0  0  0  0  0
   12.9994  -28.9049  -35.0755 N   0  0  0  0  0  0  0  0  0  0  0  0
   12.4075  -29.1047  -36.2693 C   0  0  0  0  0  0  0  0  0  0  0  0
   11.2287  -28.6486  -36.8560 C   0  0  0  0  0  0  0  0  0  0  0  0
   10.5077  -27.8742  -36.1755 O   0  0  0  0  0  0  0  0  0  0  0  0
   10.8997  -29.0372  -38.1014 N   0  0  0  0  0  0  0  0  0  0  0  0
   11.7271  -29.8796  -38.7848 C   0  0  0  0  0  0  0  0  0  0  0  0
   11.3943  -30.3075  -40.1177 N   0  0  0  0  0  0  0  0  0  0  0  0
   12.8770  -30.3248  -38.2132 N   0  0  0  0  0  0  0  0  0  0  0  0
   13.2512  -29.9631  -36.9648 C   0  0  0  0  0  0  0  0  0  0  0  0
   10.0029  -28.6864  -38.5398 H   0  0  0  0  0  0  0  0  0  0  0  0
   12.1043  -30.2542  -40.8916 H   0  0  0  0  0  0  0  0  0  0  0  0
   10.4392  -30.6821  -40.3520 H   0  0  0  0  0  0  0  0  0  0  0  0
   18.4809  -31.8358  -35.0642 C   0  0  0  0  0  0  0  0  0  0  0  0
   19.0201  -33.0008  -34.5715 O   0  0  0  0  0  0  0  0  0  0  0  0
   18.2872  -33.5820  -33.1868 P   0  0  0  0  0  0  0  0  0  0  0  0
   18.9732  -34.8156  -32.6558 O   0  0  0  0  0  0  0  0  0  0  0  0
   16.6901  -34.0359  -33.5960 O   0  0  0  0  0  0  0  0  0  0  0  0
   16.7264  -34.6660  -34.3536 H   0  0  0  0  0  0  0  0  0  0  0  0
   18.2627  -32.4046  -31.9852 O   0  0  0  0  0  0  0  0  0  0  0  0
   16.7036  -32.3094  -31.3217 P   0  0  0  0  0  0  0  0  0  0  0  0
   16.1962  -33.6747  -30.8934 O   0  0  0  0  0  0  0  0  0  0  0  0
   15.7134  -31.6285  -32.5036 O   0  0  0  0  0  0  0  0  0  0  0  0
   15.5775  -32.2610  -33.2535 H   0  0  0  0  0  0  0  0  0  0  0  0
   16.6703  -31.2989  -29.9759 O   0  0  0  0  0  0  0  0  0  0  0  0
   17.3493  -32.0220  -28.6021 P   0  0  0  0  0  0  0  0  0  0  0  0
   16.1707  -32.5245  -27.7693 O   0  0  0  0  0  0  0  0  0  0  0  0
   18.2354  -30.8749  -27.7115 O   0  0  0  0  0  0  0  0  0  0  0  0
   18.3088  -33.3318  -28.9974 O   0  0  0  0  0  0  0  0  0  0  0  0
   17.5552  -30.4028  -27.1521 H   0  0  0  0  0  0  0  0  0  0  0  0
   18.6144  -33.2718  -29.9187 H   0  0  0  0  0  0  0  0  0  0  0  0
 36 37  2  0  0  0
 36 38  1  0  0  0
 36 39  1  0  0  0
 36 35  1  0  0  0
 38 40  1  0  0  0
 39 41  1  0  0  0
 31 35  1  0  0  0
 31 32  2  0  0  0
 31 33  1  0  0  0
 31 30  1  0  0  0
 33 34  1  0  0  0
 26 30  1  0  0  0
 26 27  2  0  0  0
 26 28  1  0  0  0
 26 25  1  0  0  0
 28 29  1  0  0  0
 25 24  1  0  0  0
 24  1  1  0  0  0
  1  2  1  0  0  0
  1  3  1  0  0  0
  2  7  1  0  0  0
  3  4  1  0  0  0
  3  5  1  0  0  0
  4  8  1  0  0  0
  5  6  1  0  0  0
  5  7  1  0  0  0
  6  9  1  0  0  0
  7 10  1  0  0  0
 10 11  1  0  0  0
 10 20  1  0  0  0
 11 12  2  0  0  0
 12 13  2  0  0  0
 13 14  1  0  0  0
 13 20  2  0  0  0
 14 15  2  0  0  0
 14 16  1  0  0  0
 16 17  1  0  0  0
 16 21  1  0  0  0
 17 18  1  0  0  0
 17 19  2  0  0  0
 18 22  1  0  0  0
 18 23  1  0  0  0
 19 20  2  0  0  0
M  END
> <minimizedAffinity>
-9.52819

$$$$
GTP


 41 43  0  0  0  0  0  0  0  0999 V2000
    6.8537  -24.8177  -26.7618 C   0  0  0  0  0  0  0  0  0  0  0  0
    7.4084  -23.6353  -26.3482 O   0  0  0  0  0  0  0  0  0  0  0  0
    6.8972  -25.8053  -25.6176 C   0  0  0  0  0  0  0  0  0  0  0  0
    7.9459  -26.6755  -25.8417 O   0  0  0  0  0  0  0  0  0  0  0  0
    7.3326  -24.8733  -24.4783 C   0  0  0  0  0  0  0  0  0  0  0  0
    7.9907  -25.5561  -23.4758 O   0  0  0  0  0  0  0  0  0  0  0  0
    8.2657  -23.9652  -25.2871 C   0  0  0  0  0  0  0  0  0  0  0  0
    8.3668  -26.5755  -26.7462 H   0  0  0  0  0  0  0  0  0  0  0  0
    7.4141  -25.4463  -22.6540 H   0  0  0  0  0  0  0  0  0  0  0  0
    8.6873  -22.8278  -24.5365 N   0  0  0  0  0  0  0  0  0  0  0  0
    9.7443  -22.0336  -24.7851 C   0  0  0  0  0  0  0  0  0  0  0  0
    9.7897  -21.0716  -23.8351 N   0  0  0  0  0  0  0  0  0  0  0  0
    8.7684  -21.2371  -22.9720 C   0  0  0  0  0  0  0  0  0  0  0  0
    8.3403  -20.5566  -21.8338 C   0  0  0  0  0  0  0  0  0  0  0  0
    9.0104  -19.5543  -21.4747 O   0  0  0  0  0  0  0  0  0  0  0  0
    7.2509  -20.9769  -21.1652 N   0  0  0  0  0  0  0  0  0  0  0  0
    6.5694  -22.0723  -21.6089 C   0  0  0  0  0  0  0  0  0  0  0  0
    5.4019  -22.5386  -20.9090 N   0  0  0  0  0  0  0  0  0  0  0  0
    6.9863  -22.7365  -22.7189 N   0  0  0  0  0  0  0  0  0  0  0  0
    8.0747  -22.3534  -23.4248 C   0  0  0  0  0  0  0  0  0  0  0  0
    6.9324  -20.4547  -20.3019 H   0  0  0  0  0  0  0  0  0  0  0  0
    4.5139  -22.7533  -21.4297 H   0  0  0  0  0  0  0  0  0  0  0  0
    5.4052  -22.6761  -19.8656 H   0  0  0  0  0  0  0  0  0  0  0  0
    5.4122  -24.6434  -27.1919 C   0  0  0  0  0  0  0  0  0  0  0  0
    4.6350  -25.7236  -26.8459 O   0  0  0  0  0  0  0  0  0  0  0  0
    3.8208  -26.4379  -28.1183 P   0  0  0  0  0  0  0  0  0  0  0  0
    3.4083  -25.4332  -29.1646 O   0  0  0  0  0  0  0  0  0  0  0  0
    2.3855  -27.1273  -27.4947 O   0  0  0  0  0  0  0  0  0  0  0  0
    1.8860  -26.4291  -27.0096 H   0  0  0  0  0  0  0  0  0  0  0  0
    4.7667  -27.6279  -28.8394 O   0  0  0  0  0  0  0  0  0  0  0  0
    4.1162  -29.1551  -28.4863 P   0  0  0  0  0  0  0  0  0  0  0  0
    5.0079  -30.2722  -28.9982 O   0  0  0  0  0  0  0  0  0  0  0  0
    2.5904  -29.2102  -29.2004 O   0  0  0  0  0  0  0  0  0  0  0  0
    2.6667  -29.2444  -30.1873 H   0  0  0  0  0  0  0  0  0  0  0  0
    3.9180  -29.3690  -26.8286 O   0  0  0  0  0  0  0  0  0  0  0  0
    5.3910  -29.5863  -26.0196 P   0  0  0  0  0  0  0  0  0  0  0  0
    5.5200  -31.0908  -25.7846 O   0  0  0  0  0  0  0  0  0  0  0  0
    5.3674  -28.7709  -24.5267 O   0  0  0  0  0  0  0  0  0  0  0  0
    6.6895  -29.0865  -26.9449 O   0  0  0  0  0  0  0  0  0  0  0  0
    4.9067  -29.3972  -23.8991 H   0  0  0  0  0  0  0  0  0  0  0  0
    6.4074  -28.4469  -27.6210 H   0  0  0  0  0  0  0  0  0  0  0  0
 36 37  2  0  0  0
 36 38  1  0  0  0
 36 39  1  0  0  0
 36 35  1  0  0  0
 38 40  1  0  0  0
 39 41  1  0  0  0
 31 35  1  0  0  0
 31 32  2  0  0  0
 31 33  1  0  0  0
 31 30  1  0  0  0
 33 34  1  0  0  0
 26 30  1  0  0  0
 26 27  2  0  0  0
 26 28  1  0  0  0
 26 25  1  0  0  0
 28 29  1  0  0  0
 25 24  1  0  0  0
 24  1  1  0  0  0
  1  2  1  0  0  0
  1  3  1  0  0  0
  2  7  1  0  0  0
  3  4  1  0  0  0
  3  5  1  0  0  0
  4  8  1  0  0  0
  5  6  1  0  0  0
  5  7  1  0  0  0
  6  9  1  0  0  0
  7 10  1  0  0  0
 10 11  1  0  0  0
 10 20  1  0  0  0
 11 12  2  0  0  0
 12 13  2  0  0  0
 13 14  1  0  0  0
 13 20  2  0  0  0
 14 15  2  0  0  0
 14 16  1  0  0  0
 16 17  1  0  0  0
 16 21  1  0  0  0
 17 18  1  0  0  0
 17 19  2  0  0  0
 18 22  1  0  0  0
 18 23  1  0  0  0
 19 20  2  0  0  0
M  END
> <minimizedAffinity>
-9.47610

$$$$
